CIF file written using JARVIS-Tools package.
data_RbBaTaS4
_symmetry_space_group_name_H-M  'Pnma'
_cell_length_a       7.04225
_cell_length_b       9.39697
_cell_length_c       12.5123
_cell_angle_alpha    90
_cell_angle_beta     90
_cell_angle_gamma    90

_symmetry_Int_Tables_number  62
_chemical_formula_structural  RbBaTaS4
_chemical_formula_sum  Rb4Ba4Ta4S6
_cell_volume  828.0119929691094
_cell_formula_units_Z  4
loop_
  _symmetry_equiv_pos_site_id
 _symmetry_equiv_pos_as_xyz
 1  'x, y, z'
loop_
 _atom_site_type_symbol
 _atom_site_label
 _atom_site_symmetry_multiplicity
 _atom_site_fract_x
 _atom_site_fract_y
 _atom_site_fract_z
 _atom_site_fract_occupancy
 Ba  Ba1  1  0.75000  0.97859  0.82549  1
 Ba  Ba2  1  0.25000  0.52141  0.32549  1
 Ba  Ba3  1  0.75000  0.47859  0.67451  1
 Ba  Ba4  1  0.25000  0.02141  0.17451  1
 Rb  Rb1  1  0.75000  0.63666  0.09049  1
 Rb  Rb2  1  0.25000  0.86334  0.59049  1
 Rb  Rb3  1  0.75000  0.13666  0.40951  1
 Rb  Rb4  1  0.25000  0.36334  0.90951  1
 S  S1  1  0.25000  0.69364  0.09464  1
 S  S2  1  0.25000  0.51182  0.58729  1
 S  S3  1  0.75000  0.98818  0.08729  1
 S  S4  1  0.75000  0.80636  0.59464  1
 S  S5  1  0.75000  0.30636  0.90536  1
 S  S6  1  0.98970  0.68112  0.83782  1
 S  S7  1  0.25000  0.01182  0.91271  1
 S  S8  1  0.25000  0.19364  0.40536  1
 S  S9  1  0.48970  0.81888  0.33782  1
 S  S10  1  0.51030  0.18112  0.66218  1
 S  S11  1  0.01030  0.31888  0.16218  1
 S  S12  1  0.98970  0.18112  0.66218  1
 S  S13  1  0.75000  0.48818  0.41271  1
 S  S14  1  0.48970  0.31888  0.16218  1
 S  S15  1  0.51030  0.68112  0.83782  1
 S  S16  1  0.01030  0.81888  0.33782  1
 Ta  Ta1  1  0.75000  0.73121  0.42120  1
 Ta  Ta2  1  0.25000  0.76879  0.92120  1
 Ta  Ta3  1  0.75000  0.23121  0.07880  1
 Ta  Ta4  1  0.25000  0.26879  0.57880  1
