CIF file written using JARVIS-Tools package.
data_TaAs2
_symmetry_space_group_name_H-M  'C2/m'
_cell_length_a       3.43776
_cell_length_b       5.03872
_cell_length_c       7.06785
_cell_angle_alpha    78.8054
_cell_angle_beta     75.9246
_cell_angle_gamma    70.054

_symmetry_Int_Tables_number  12
_chemical_formula_structural  TaAs2
_chemical_formula_sum  Ta2As4
_cell_volume  110.7967205435916
_cell_formula_units_Z  2
loop_
  _symmetry_equiv_pos_site_id
 _symmetry_equiv_pos_as_xyz
 1  'x, y, z'
loop_
 _atom_site_type_symbol
 _atom_site_label
 _atom_site_symmetry_multiplicity
 _atom_site_fract_x
 _atom_site_fract_y
 _atom_site_fract_z
 _atom_site_fract_occupancy
 As  As1  1  0.85975  0.75209  0.52842  1
 As  As2  1  0.14025  0.24791  0.47158  1
 As  As3  1  0.40625  0.29561  0.89189  1
 As  As4  1  0.59375  0.70439  0.10811  1
 Ta  Ta1  1  0.15730  0.88097  0.80442  1
 Ta  Ta2  1  0.84270  0.11903  0.19558  1
