CIF file written using JARVIS-Tools package.
data_HoMnB4
_symmetry_space_group_name_H-M  'Pbam'
_cell_length_a       3.41326
_cell_length_b       5.88628
_cell_length_c       11.3786
_cell_angle_alpha    90
_cell_angle_beta     90
_cell_angle_gamma    90

_symmetry_Int_Tables_number  55
_chemical_formula_structural  HoMnB4
_chemical_formula_sum  Ho4Mn4B6
_cell_volume  228.6124808561155
_cell_formula_units_Z  4
loop_
  _symmetry_equiv_pos_site_id
 _symmetry_equiv_pos_as_xyz
 1  'x, y, z'
loop_
 _atom_site_type_symbol
 _atom_site_label
 _atom_site_symmetry_multiplicity
 _atom_site_fract_x
 _atom_site_fract_y
 _atom_site_fract_z
 _atom_site_fract_occupancy
 B  B1  1  0.50000  0.86198  0.03207  1
 B  B2  1  0.50000  0.47507  0.19109  1
 B  B3  1  0.50000  0.52493  0.80891  1
 B  B4  1  0.50000  0.97507  0.30891  1
 B  B5  1  0.50000  0.88769  0.45355  1
 B  B6  1  0.50000  0.28140  0.31624  1
 B  B7  1  0.50000  0.71860  0.68376  1
 B  B8  1  0.50000  0.02493  0.69109  1
 B  B9  1  0.50000  0.21860  0.81624  1
 B  B10  1  0.50000  0.36198  0.46793  1
 B  B11  1  0.50000  0.63802  0.53207  1
 B  B12  1  0.50000  0.11231  0.54645  1
 B  B13  1  0.50000  0.13802  0.96793  1
 B  B14  1  0.50000  0.38769  0.04645  1
 B  B15  1  0.50000  0.61231  0.95355  1
 B  B16  1  0.50000  0.78140  0.18376  1
 Ho  Ho1  1  0.00000  0.37412  0.65045  1
 Ho  Ho2  1  0.00000  0.62588  0.34955  1
 Ho  Ho3  1  0.00000  0.87412  0.84955  1
 Ho  Ho4  1  0.00000  0.12588  0.15045  1
 Mn  Mn1  1  0.00000  0.37252  0.91630  1
 Mn  Mn2  1  0.00000  0.62748  0.08370  1
 Mn  Mn3  1  0.00000  0.87252  0.58370  1
 Mn  Mn4  1  0.00000  0.12748  0.41630  1
