CIF file written using JARVIS-Tools package.
data_Si
_symmetry_space_group_name_H-M  'Fmmm'
_cell_length_a       3.67886
_cell_length_b       3.67886
_cell_length_c       5.37428
_cell_angle_alpha    107.865
_cell_angle_beta     107.865
_cell_angle_gamma    95.9532

_symmetry_Int_Tables_number  69
_chemical_formula_structural  Si
_chemical_formula_sum  Si4
_cell_volume  64.30078074039278
_cell_formula_units_Z  4
loop_
  _symmetry_equiv_pos_site_id
 _symmetry_equiv_pos_as_xyz
 1  'x, y, z'
loop_
 _atom_site_type_symbol
 _atom_site_label
 _atom_site_symmetry_multiplicity
 _atom_site_fract_x
 _atom_site_fract_y
 _atom_site_fract_z
 _atom_site_fract_occupancy
 Si  Si1  1  0.72509  0.27491  0.00000  1
 Si  Si2  1  0.27491  0.72509  0.00000  1
 Si  Si3  1  0.78404  0.78404  0.56808  1
 Si  Si4  1  0.21596  0.21596  0.43192  1
