CIF file written using JARVIS-Tools package.
data_K3YB2O6
_symmetry_space_group_name_H-M  'Pnnm'
_cell_length_a       5.56276
_cell_length_b       6.74917
_cell_length_c       9.43508
_cell_angle_alpha    90
_cell_angle_beta     90
_cell_angle_gamma    90

_symmetry_Int_Tables_number  58
_chemical_formula_structural  K3YB2O6
_chemical_formula_sum  K6Y2B4O2
_cell_volume  354.23050808608525
_cell_formula_units_Z  2
loop_
  _symmetry_equiv_pos_site_id
 _symmetry_equiv_pos_as_xyz
 1  'x, y, z'
loop_
 _atom_site_type_symbol
 _atom_site_label
 _atom_site_symmetry_multiplicity
 _atom_site_fract_x
 _atom_site_fract_y
 _atom_site_fract_z
 _atom_site_fract_occupancy
 B  B1  1  0.00000  0.23810  0.66539  1
 B  B2  1  0.00000  0.76190  0.33461  1
 B  B3  1  0.50000  0.26190  0.16539  1
 B  B4  1  0.50000  0.73810  0.83461  1
 K  K1  1  0.00000  0.00000  0.00000  1
 K  K2  1  0.00000  0.23496  0.33225  1
 K  K3  1  0.50000  0.50000  0.50000  1
 K  K4  1  0.50000  0.73496  0.16775  1
 K  K5  1  0.00000  0.76504  0.66775  1
 K  K6  1  0.50000  0.26504  0.83225  1
 O  O1  1  0.21632  0.20237  0.59600  1
 O  O2  1  0.78368  0.79763  0.40400  1
 O  O3  1  0.28368  0.70237  0.90400  1
 O  O4  1  0.78368  0.20237  0.59600  1
 O  O5  1  0.21632  0.79763  0.40400  1
 O  O6  1  0.28368  0.29763  0.09600  1
 O  O7  1  0.50000  0.80757  0.69579  1
 O  O8  1  0.50000  0.19243  0.30421  1
 O  O9  1  0.71632  0.29763  0.09600  1
 O  O10  1  0.00000  0.69243  0.19579  1
 O  O11  1  0.00000  0.30757  0.80421  1
 O  O12  1  0.71632  0.70237  0.90400  1
 Y  Y1  1  0.50000  0.00000  0.50000  1
 Y  Y2  1  0.00000  0.50000  0.00000  1
