CIF file written using JARVIS-Tools package.
data_KSr3
_symmetry_space_group_name_H-M  'I4/mmm'
_cell_length_a       7.47293
_cell_length_b       7.47293
_cell_length_c       7.47293
_cell_angle_alpha    132.415
_cell_angle_beta     132.415
_cell_angle_gamma    69.5744

_symmetry_Int_Tables_number  139
_chemical_formula_structural  KSr3
_chemical_formula_sum  KSr3
_cell_volume  223.12494400063113
_cell_formula_units_Z  1
loop_
  _symmetry_equiv_pos_site_id
 _symmetry_equiv_pos_as_xyz
 1  'x, y, z'
loop_
 _atom_site_type_symbol
 _atom_site_label
 _atom_site_symmetry_multiplicity
 _atom_site_fract_x
 _atom_site_fract_y
 _atom_site_fract_z
 _atom_site_fract_occupancy
 K  K1  1  0.00000  0.00000  0.00000  1
 Sr  Sr1  1  0.75000  0.25000  0.50000  1
 Sr  Sr2  1  0.25000  0.75000  0.50000  1
 Sr  Sr3  1  0.50000  0.50000  0.00000  1
