CIF file written using JARVIS-Tools package.
data_Tm3Ge4Pd4
_symmetry_space_group_name_H-M  'Immm'
_cell_length_a       4.13142
_cell_length_b       7.07477
_cell_length_c       8.06177
_cell_angle_alpha    116.026
_cell_angle_beta     104.847
_cell_angle_gamma    90

_symmetry_Int_Tables_number  71
_chemical_formula_structural  Tm3Ge4Pd4
_chemical_formula_sum  Tm3Ge4Pd4
_cell_volume  202.94986091333126
_cell_formula_units_Z  1
loop_
  _symmetry_equiv_pos_site_id
 _symmetry_equiv_pos_as_xyz
 1  'x, y, z'
loop_
 _atom_site_type_symbol
 _atom_site_label
 _atom_site_symmetry_multiplicity
 _atom_site_fract_x
 _atom_site_fract_y
 _atom_site_fract_z
 _atom_site_fract_occupancy
 Ge  Ge1  1  0.50000  0.68936  0.00000  1
 Ge  Ge2  1  0.50000  0.31064  -0.00000  1
 Ge  Ge3  1  0.21697  0.21697  0.43395  1
 Ge  Ge4  1  0.78303  0.78303  0.56605  1
 Pd  Pd1  1  0.32509  0.62273  0.65017  1
 Pd  Pd2  1  0.67491  0.97256  0.34983  1
 Pd  Pd3  1  0.32509  0.02744  0.65017  1
 Pd  Pd4  1  0.67491  0.37727  0.34983  1
 Tm  Tm1  1  0.87419  0.37419  0.74837  1
 Tm  Tm2  1  0.12581  0.62581  0.25163  1
 Tm  Tm3  1  0.00000  0.00000  0.00000  1
