CIF file written using JARVIS-Tools package.
data_TbBS3
_symmetry_space_group_name_H-M  'Pna2_1'
_cell_length_a       6.11202
_cell_length_b       7.17961
_cell_length_c       8.72651
_cell_angle_alpha    90
_cell_angle_beta     90
_cell_angle_gamma    90

_symmetry_Int_Tables_number  33
_chemical_formula_structural  TbBS3
_chemical_formula_sum  Tb4B4S2
_cell_volume  382.93578488747903
_cell_formula_units_Z  4
loop_
  _symmetry_equiv_pos_site_id
 _symmetry_equiv_pos_as_xyz
 1  'x, y, z'
loop_
 _atom_site_type_symbol
 _atom_site_label
 _atom_site_symmetry_multiplicity
 _atom_site_fract_x
 _atom_site_fract_y
 _atom_site_fract_z
 _atom_site_fract_occupancy
 B  B1  1  0.39805  0.35770  0.04804  1
 B  B2  1  0.60195  0.64230  0.54804  1
 B  B3  1  0.10195  0.85770  0.04804  1
 B  B4  1  0.89805  0.14230  0.54804  1
 S  S1  1  0.66996  0.17582  0.41548  1
 S  S2  1  0.83004  0.67582  0.41548  1
 S  S3  1  0.12421  0.00879  0.21226  1
 S  S4  1  0.16996  0.32418  0.91548  1
 S  S5  1  0.13577  0.29308  0.51935  1
 S  S6  1  0.86423  0.70692  0.01935  1
 S  S7  1  0.62421  0.49121  0.71226  1
 S  S8  1  0.37579  0.50879  0.21226  1
 S  S9  1  0.87579  0.99121  0.71226  1
 S  S10  1  0.36423  0.79308  0.51935  1
 S  S11  1  0.33004  0.82418  0.91548  1
 S  S12  1  0.63577  0.20692  0.01935  1
 Tb  Tb1  1  0.94452  0.38018  0.21578  1
 Tb  Tb2  1  0.55548  0.88018  0.21578  1
 Tb  Tb3  1  0.44452  0.11982  0.71578  1
 Tb  Tb4  1  0.05548  0.61982  0.71578  1
