CIF file written using JARVIS-Tools package.
data_Mo2SeS3
_symmetry_space_group_name_H-M  'Amm2'
_cell_length_a       3.22412
_cell_length_b       3.22411
_cell_length_c       25.3114
_cell_angle_alpha    90.006
_cell_angle_beta     90.0013
_cell_angle_gamma    119.999

_symmetry_Int_Tables_number  38
_chemical_formula_structural  Mo2SeS3
_chemical_formula_sum  Mo4Se2S6
_cell_volume  227.86151536032833
_cell_formula_units_Z  2
loop_
  _symmetry_equiv_pos_site_id
 _symmetry_equiv_pos_as_xyz
 1  'x, y, z'
loop_
 _atom_site_type_symbol
 _atom_site_label
 _atom_site_symmetry_multiplicity
 _atom_site_fract_x
 _atom_site_fract_y
 _atom_site_fract_z
 _atom_site_fract_occupancy
 Mo  Mo1  1  0.33359  0.66718  0.00538  1
 Mo  Mo2  1  0.33289  0.66579  0.49609  1
 Mo  Mo3  1  0.66738  0.33474  0.25071  1
 Mo  Mo4  1  0.66614  0.33230  0.75075  1
 S  S1  1  0.33410  0.66815  0.31219  1
 S  S2  1  0.66685  0.33374  -0.05613  1
 S  S3  1  0.66617  0.33239  0.43461  1
 S  S4  1  0.66698  0.33393  0.06685  1
 S  S5  1  0.66626  0.33251  0.55759  1
 S  S6  1  0.33400  0.66800  0.18923  1
 Se  Se1  1  0.33287  0.66571  0.81833  1
 Se  Se2  1  0.33276  0.66556  0.68316  1
