CIF file written using JARVIS-Tools package.
data_Te7Mo6S5
_symmetry_space_group_name_H-M  'Cm'
_cell_length_a       3.40742
_cell_length_b       8.90946
_cell_length_c       14.5714
_cell_angle_alpha    103.408
_cell_angle_beta     96.7154
_cell_angle_gamma    78.9742

_symmetry_Int_Tables_number  8
_chemical_formula_structural  Te7Mo6S5
_chemical_formula_sum  Te7Mo6S5
_cell_volume  421.1408804302679
_cell_formula_units_Z  1
loop_
  _symmetry_equiv_pos_site_id
 _symmetry_equiv_pos_as_xyz
 1  'x, y, z'
loop_
 _atom_site_type_symbol
 _atom_site_label
 _atom_site_symmetry_multiplicity
 _atom_site_fract_x
 _atom_site_fract_y
 _atom_site_fract_z
 _atom_site_fract_occupancy
 Mo  Mo1  1  0.68578  0.38952  0.76103  1
 Mo  Mo2  1  0.34904  0.05245  0.75051  1
 Mo  Mo3  1  0.98608  0.26930  0.24150  1
 Mo  Mo4  1  0.01837  0.72225  0.75894  1
 Mo  Mo5  1  0.31497  0.62176  0.25172  1
 Mo  Mo6  1  0.64921  0.94808  0.24655  1
 S  S1  1  0.83175  0.19349  0.85697  1
 S  S2  1  0.57065  0.20479  0.34611  1
 S  S3  1  0.17304  0.79999  0.14613  1
 S  S4  1  0.09757  0.46383  0.65894  1
 S  S5  1  0.49151  0.87561  0.85857  1
 Te  Te1  1  0.74464  0.12842  0.61771  1
 Te  Te2  1  0.42387  0.77280  0.62053  1
 Te  Te3  1  0.24424  0.89655  0.38505  1
 Te  Te4  1  0.82665  0.46430  0.11764  1
 Te  Te5  1  0.92141  0.53716  0.37999  1
 Te  Te6  1  0.17342  0.55082  0.89762  1
 Te  Te7  1  0.49779  0.10888  0.10450  1
