CIF file written using JARVIS-Tools package.
data_Ti3Ni4
_symmetry_space_group_name_H-M  'R-3'
_cell_length_a       6.71211
_cell_length_b       6.71211
_cell_length_c       6.71211
_cell_angle_alpha    113.987
_cell_angle_beta     113.987
_cell_angle_gamma    113.987

_symmetry_Int_Tables_number  148
_chemical_formula_structural  Ti3Ni4
_chemical_formula_sum  Ti6Ni8
_cell_volume  183.89968408263715
_cell_formula_units_Z  2
loop_
  _symmetry_equiv_pos_site_id
 _symmetry_equiv_pos_as_xyz
 1  'x, y, z'
loop_
 _atom_site_type_symbol
 _atom_site_label
 _atom_site_symmetry_multiplicity
 _atom_site_fract_x
 _atom_site_fract_y
 _atom_site_fract_z
 _atom_site_fract_occupancy
 Ni  Ni1  1  0.58006  0.73996  0.05884  1
 Ni  Ni2  1  0.41994  0.26004  0.94116  1
 Ni  Ni3  1  0.73996  0.05884  0.58006  1
 Ni  Ni4  1  0.05884  0.58006  0.73996  1
 Ni  Ni5  1  0.26004  0.94116  0.41994  1
 Ni  Ni6  1  0.00000  0.00000  0.00000  1
 Ni  Ni7  1  0.94116  0.41994  0.26004  1
 Ni  Ni8  1  0.50000  0.50000  0.50000  1
 Ti  Ti1  1  0.49946  0.89462  0.76160  1
 Ti  Ti2  1  0.23840  0.50054  0.10538  1
 Ti  Ti3  1  0.50054  0.10538  0.23840  1
 Ti  Ti4  1  0.10538  0.23840  0.50054  1
 Ti  Ti5  1  0.89462  0.76160  0.49946  1
 Ti  Ti6  1  0.76160  0.49946  0.89462  1
