CIF file written using JARVIS-Tools package.
data_Mo2Se3S
_symmetry_space_group_name_H-M  'P3m1'
_cell_length_a       3.29164
_cell_length_b       3.29163
_cell_length_c       34.3171
_cell_angle_alpha    90.0056
_cell_angle_beta     90
_cell_angle_gamma    120

_symmetry_Int_Tables_number  156
_chemical_formula_structural  Mo2Se3S
_chemical_formula_sum  Mo4Se6S2
_cell_volume  322.0056962731284
_cell_formula_units_Z  2
loop_
  _symmetry_equiv_pos_site_id
 _symmetry_equiv_pos_as_xyz
 1  'x, y, z'
loop_
 _atom_site_type_symbol
 _atom_site_label
 _atom_site_symmetry_multiplicity
 _atom_site_fract_x
 _atom_site_fract_y
 _atom_site_fract_z
 _atom_site_fract_occupancy
 Mo  Mo1  1  0.33333  0.66665  0.09512  1
 Mo  Mo2  1  0.33334  0.66668  0.46692  1
 Mo  Mo3  1  0.66664  0.33329  0.28109  1
 Mo  Mo4  1  0.66669  0.33338  0.65979  1
 S  S1  1  0.33336  0.66671  0.32584  1
 S  S2  1  0.33327  0.66654  0.23633  1
 Se  Se1  1  0.33339  0.66679  0.70887  1
 Se  Se2  1  0.66662  0.33325  0.04604  1
 Se  Se3  1  0.66664  0.33328  0.41780  1
 Se  Se4  1  0.66669  0.33339  0.14425  1
 Se  Se5  1  0.66671  0.33341  0.51605  1
 Se  Se6  1  0.33332  0.66664  0.61065  1
