CIF file written using JARVIS-Tools package.
data_ThFe2SiC
_symmetry_space_group_name_H-M  'Cmcm'
_cell_length_a       3.89669
_cell_length_b       5.71407
_cell_length_c       6.81581
_cell_angle_alpha    90
_cell_angle_beta     90
_cell_angle_gamma    109.936

_symmetry_Int_Tables_number  63
_chemical_formula_structural  ThFe2SiC
_chemical_formula_sum  Th2Fe4Si2C2
_cell_volume  142.66573856001978
_cell_formula_units_Z  2
loop_
  _symmetry_equiv_pos_site_id
 _symmetry_equiv_pos_as_xyz
 1  'x, y, z'
loop_
 _atom_site_type_symbol
 _atom_site_label
 _atom_site_symmetry_multiplicity
 _atom_site_fract_x
 _atom_site_fract_y
 _atom_site_fract_z
 _atom_site_fract_occupancy
 C  C1  1  0.50000  0.00000  0.50000  1
 C  C2  1  0.50000  0.00000  0.00000  1
 Fe  Fe1  1  0.66323  0.32646  0.06037  1
 Fe  Fe2  1  0.66323  0.32646  0.43963  1
 Fe  Fe3  1  0.33677  0.67354  0.93963  1
 Fe  Fe4  1  0.33677  0.67354  0.56037  1
 Si  Si1  1  0.22381  0.44762  0.25000  1
 Si  Si2  1  0.77619  0.55238  0.75000  1
 Th  Th1  1  0.94112  0.88225  0.25000  1
 Th  Th2  1  0.05888  0.11775  0.75000  1
