CIF file written using JARVIS-Tools package.
data_As2Cl3OF5
_symmetry_space_group_name_H-M  'P2_1/c'
_cell_length_a       5.83047
_cell_length_b       18.3993
_cell_length_c       7.80347
_cell_angle_alpha    90
_cell_angle_beta     106.448
_cell_angle_gamma    90

_symmetry_Int_Tables_number  14
_chemical_formula_structural  As2Cl3OF5
_chemical_formula_sum  As8Cl2O4F20
_cell_volume  802.8730737702773
_cell_formula_units_Z  4
loop_
  _symmetry_equiv_pos_site_id
 _symmetry_equiv_pos_as_xyz
 1  'x, y, z'
loop_
 _atom_site_type_symbol
 _atom_site_label
 _atom_site_symmetry_multiplicity
 _atom_site_fract_x
 _atom_site_fract_y
 _atom_site_fract_z
 _atom_site_fract_occupancy
 As  As1  1  0.56007  0.62078  0.16972  1
 As  As2  1  0.14517  0.61114  0.79716  1
 As  As3  1  0.56007  0.87922  0.66972  1
 As  As4  1  0.43993  0.37922  0.83028  1
 As  As5  1  0.85483  0.38886  0.20284  1
 As  As6  1  0.43993  0.12078  0.33028  1
 As  As7  1  0.85483  0.11114  0.70284  1
 As  As8  1  0.14517  0.88886  0.29716  1
 Cl  Cl1  1  0.11745  0.46805  0.30573  1
 Cl  Cl2  1  0.67090  0.36522  0.39367  1
 Cl  Cl3  1  0.97176  0.70760  0.83601  1
 Cl  Cl4  1  0.32910  0.86522  0.10633  1
 Cl  Cl5  1  0.02824  0.29240  0.16399  1
 Cl  Cl6  1  0.97176  0.79240  0.33601  1
 Cl  Cl7  1  0.02824  0.20760  0.66399  1
 Cl  Cl8  1  0.88255  0.96805  0.19427  1
 Cl  Cl9  1  0.88255  0.53195  0.69427  1
 Cl  Cl10  1  0.32910  0.63478  0.60633  1
 Cl  Cl11  1  0.67090  0.13478  0.89367  1
 Cl  Cl12  1  0.11745  0.03195  0.80573  1
 F  F1  1  0.46206  0.19975  0.46532  1
 F  F2  1  0.32629  0.65502  0.24982  1
 F  F3  1  0.53794  0.80025  0.53468  1
 F  F4  1  0.43129  0.46071  0.70778  1
 F  F5  1  0.67371  0.15502  0.25018  1
 F  F6  1  0.78565  0.91220  0.58032  1
 F  F7  1  0.53794  0.69975  0.03468  1
 F  F8  1  0.67371  0.34498  0.75018  1
 F  F9  1  0.56871  0.96071  0.79222  1
 F  F10  1  0.56871  0.53929  0.29222  1
 F  F11  1  0.77405  0.83969  0.85315  1
 F  F12  1  0.22595  0.16031  0.14685  1
 F  F13  1  0.46206  0.30025  0.96532  1
 F  F14  1  0.21435  0.08780  0.41968  1
 F  F15  1  0.22595  0.33969  0.64685  1
 F  F16  1  0.21435  0.41220  0.91968  1
 F  F17  1  0.32629  0.84498  0.74982  1
 F  F18  1  0.43129  0.03929  0.20778  1
 F  F19  1  0.78565  0.58780  0.08032  1
 F  F20  1  0.77405  0.66031  0.35315  1
 O  O1  1  0.32651  0.57208  -0.01399  1
 O  O2  1  0.32651  0.92792  0.48601  1
 O  O3  1  0.67349  0.07208  0.51399  1
 O  O4  1  0.67349  0.42792  0.01399  1
