CIF file written using JARVIS-Tools package.
data_Ba2Si5N8
_symmetry_space_group_name_H-M  'Pmn2_1'
_cell_length_a       5.83145
_cell_length_b       7.01903
_cell_length_c       9.4639
_cell_angle_alpha    90
_cell_angle_beta     90
_cell_angle_gamma    90

_symmetry_Int_Tables_number  31
_chemical_formula_structural  Ba2Si5N8
_chemical_formula_sum  Ba4Si0N6
_cell_volume  387.3678277193768
_cell_formula_units_Z  2
loop_
  _symmetry_equiv_pos_site_id
 _symmetry_equiv_pos_as_xyz
 1  'x, y, z'
loop_
 _atom_site_type_symbol
 _atom_site_label
 _atom_site_symmetry_multiplicity
 _atom_site_fract_x
 _atom_site_fract_y
 _atom_site_fract_z
 _atom_site_fract_occupancy
 Ba  Ba1  1  0.50000  0.12160  0.13227  1
 Ba  Ba2  1  0.00000  0.87840  0.63227  1
 Ba  Ba3  1  0.50000  0.14555  0.49961  1
 Ba  Ba4  1  0.00000  0.85445  -0.00039  1
 N  N1  1  0.00000  0.19804  0.47117  1
 N  N2  1  0.00000  0.41944  0.72957  1
 N  N3  1  0.50000  0.82478  0.66472  1
 N  N4  1  0.00000  0.17522  0.16472  1
 N  N5  1  0.50000  0.42382  0.73541  1
 N  N6  1  0.00000  0.57618  0.23541  1
 N  N7  1  0.50000  0.58056  0.22957  1
 N  N8  1  0.75324  0.44628  0.99323  1
 N  N9  1  0.24676  0.44628  0.99323  1
 N  N10  1  0.73841  0.09486  0.83037  1
 N  N11  1  0.76159  0.90514  0.33037  1
 N  N12  1  0.26159  0.09486  0.83037  1
 N  N13  1  0.25324  0.55372  0.49323  1
 N  N14  1  0.74676  0.55372  0.49323  1
 N  N15  1  0.23841  0.90514  0.33037  1
 N  N16  1  0.50000  0.80196  0.97117  1
 Si  Si1  1  0.50000  0.94768  0.82247  1
 Si  Si2  1  0.50000  0.60045  0.60348  1
 Si  Si3  1  0.00000  0.39955  0.10348  1
 Si  Si4  1  0.50000  0.58067  0.03942  1
 Si  Si5  1  0.00000  0.41933  0.53942  1
 Si  Si6  1  0.75094  0.33640  0.82086  1
 Si  Si7  1  0.00000  0.05232  0.32247  1
 Si  Si8  1  0.74906  0.66360  0.32086  1
 Si  Si9  1  0.24906  0.33640  0.82086  1
 Si  Si10  1  0.25094  0.66360  0.32086  1
