CIF file written using JARVIS-Tools package.
data_VIr
_symmetry_space_group_name_H-M  'P4/mmm'
_cell_length_a       3.67585
_cell_length_b       3.89411
_cell_length_c       3.89411
_cell_angle_alpha    90
_cell_angle_beta     90
_cell_angle_gamma    90

_symmetry_Int_Tables_number  123
_chemical_formula_structural  VIr
_chemical_formula_sum  V2Ir2
_cell_volume  55.74097850105612
_cell_formula_units_Z  2
loop_
  _symmetry_equiv_pos_site_id
 _symmetry_equiv_pos_as_xyz
 1  'x, y, z'
loop_
 _atom_site_type_symbol
 _atom_site_label
 _atom_site_symmetry_multiplicity
 _atom_site_fract_x
 _atom_site_fract_y
 _atom_site_fract_z
 _atom_site_fract_occupancy
 Ir  Ir1  1  0.00000  0.50000  0.50000  1
 Ir  Ir2  1  0.00000  0.00000  0.00000  1
 V  V1  1  0.50000  0.50000  0.00000  1
 V  V2  1  0.50000  0.00000  0.50000  1
