CIF file written using JARVIS-Tools package.
data_KMnTe2
_symmetry_space_group_name_H-M  'I-4m2'
_cell_length_a       4.27515
_cell_length_b       4.27515
_cell_length_c       7.73904
_cell_angle_alpha    106.034
_cell_angle_beta     106.034
_cell_angle_gamma    89.9999

_symmetry_Int_Tables_number  119
_chemical_formula_structural  KMnTe2
_chemical_formula_sum  KMnTe2
_cell_volume  130.20833791458855
_cell_formula_units_Z  1
loop_
  _symmetry_equiv_pos_site_id
 _symmetry_equiv_pos_as_xyz
 1  'x, y, z'
loop_
 _atom_site_type_symbol
 _atom_site_label
 _atom_site_symmetry_multiplicity
 _atom_site_fract_x
 _atom_site_fract_y
 _atom_site_fract_z
 _atom_site_fract_occupancy
 K  K1  1  0.00000  0.00000  0.00000  1
 Mn  Mn1  1  0.75000  0.25000  0.50000  1
 Te  Te1  1  0.35768  0.35768  0.71537  1
 Te  Te2  1  0.64232  0.64232  0.28463  1
