CIF file written using JARVIS-Tools package.
data_TeW2Se2S
_symmetry_space_group_name_H-M  'P3m1'
_cell_length_a       3.34734
_cell_length_b       3.34724
_cell_length_c       33.8323
_cell_angle_alpha    90.0013
_cell_angle_beta     90
_cell_angle_gamma    120.001

_symmetry_Int_Tables_number  156
_chemical_formula_structural  TeW2Se2S
_chemical_formula_sum  Te2W4Se4S2
_cell_volume  328.2798872292048
_cell_formula_units_Z  2
loop_
  _symmetry_equiv_pos_site_id
 _symmetry_equiv_pos_as_xyz
 1  'x, y, z'
loop_
 _atom_site_type_symbol
 _atom_site_label
 _atom_site_symmetry_multiplicity
 _atom_site_fract_x
 _atom_site_fract_y
 _atom_site_fract_z
 _atom_site_fract_occupancy
 S  S1  1  0.33329  0.66658  0.32248  1
 S  S2  1  0.33314  0.66627  0.23231  1
 Se  Se1  1  0.66602  0.33203  0.03909  1
 Se  Se2  1  0.66708  0.33415  0.41614  1
 Se  Se3  1  0.66636  0.33272  0.13805  1
 Se  Se4  1  0.66664  0.33327  0.51514  1
 Te  Te1  1  0.33359  0.66718  0.72775  1
 Te  Te2  1  0.33385  0.66769  0.61486  1
 W  W1  1  0.33288  0.66576  0.08853  1
 W  W2  1  0.33352  0.66705  0.46564  1
 W  W3  1  0.66664  0.33327  0.27741  1
 W  W4  1  0.66701  0.33402  0.67135  1
