CIF file written using JARVIS-Tools package.
data_SmSi2Au2
_symmetry_space_group_name_H-M  'I4/mmm'
_cell_length_a       4.33891
_cell_length_b       4.33891
_cell_length_c       5.93679
_cell_angle_alpha    111.434
_cell_angle_beta     111.434
_cell_angle_gamma    90

_symmetry_Int_Tables_number  139
_chemical_formula_structural  SmSi2Au2
_chemical_formula_sum  SmSi2Au2
_cell_volume  95.68490519829747
_cell_formula_units_Z  1
loop_
  _symmetry_equiv_pos_site_id
 _symmetry_equiv_pos_as_xyz
 1  'x, y, z'
loop_
 _atom_site_type_symbol
 _atom_site_label
 _atom_site_symmetry_multiplicity
 _atom_site_fract_x
 _atom_site_fract_y
 _atom_site_fract_z
 _atom_site_fract_occupancy
 Au  Au1  1  0.25000  0.75000  0.50000  1
 Au  Au2  1  0.75000  0.25000  0.50000  1
 Si  Si1  1  0.61454  0.61454  0.22909  1
 Si  Si2  1  0.38546  0.38546  0.77091  1
 Sm  Sm1  1  0.00000  0.00000  0.00000  1
