data_image0
_chemical_formula_structural       BaNiO5Sm2
_chemical_formula_sum              "Ba1 Ni1 O5 Sm2"
_cell_length_a       3.79474
_cell_length_b       5.86343
_cell_length_c       6.74997
_cell_angle_alpha    115.743
_cell_angle_beta     106.325
_cell_angle_gamma    90

_space_group_name_H-M_alt    "P 1"
_space_group_IT_number       1

loop_
  _space_group_symop_operation_xyz
  'x, y, z'

loop_
  _atom_site_type_symbol
  _atom_site_label
  _atom_site_symmetry_multiplicity
  _atom_site_fract_x
  _atom_site_fract_y
  _atom_site_fract_z
  _atom_site_occupancy
  Ba  Ba1       1.0  0.00000  0.00000  0.00000  1.0000
  Ni  Ni1       1.0  0.50000  0.50000  0.00000  1.0000
  O   O1        1.0  0.00000  0.50000  0.00000  1.0000
  O   O2        1.0  0.64600  0.40500  0.29200  1.0000
  O   O3        1.0  0.64600  0.88700  0.29200  1.0000
  O   O4        1.0  0.35400  0.11300  0.70800  1.0000
  O   O5        1.0  0.35400  0.59500  0.70800  1.0000
  Sm  Sm1       1.0  0.20300  0.70300  0.40600  1.0000
  Sm  Sm2       1.0  0.79700  0.29700  0.59400  1.0000
