CIF file written using JARVIS-Tools package.
data_Mg3As2
_symmetry_space_group_name_H-M  'Ia-3'
_cell_length_a       10.7552
_cell_length_b       10.7552
_cell_length_c       10.7552
_cell_angle_alpha    109.471
_cell_angle_beta     109.471
_cell_angle_gamma    109.471

_symmetry_Int_Tables_number  206
_chemical_formula_structural  Mg3As2
_chemical_formula_sum  Mg24As6
_cell_volume  957.6971265783596
_cell_formula_units_Z  8
loop_
  _symmetry_equiv_pos_site_id
 _symmetry_equiv_pos_as_xyz
 1  'x, y, z'
loop_
 _atom_site_type_symbol
 _atom_site_label
 _atom_site_symmetry_multiplicity
 _atom_site_fract_x
 _atom_site_fract_y
 _atom_site_fract_z
 _atom_site_fract_occupancy
 As  As1  1  0.50000  0.50000  0.50000  1
 As  As2  1  0.50000  0.00000  -0.00000  1
 As  As3  1  0.22789  0.97789  0.25000  1
 As  As4  1  0.00000  0.50000  -0.00000  1
 As  As5  1  0.25000  0.22789  0.97789  1
 As  As6  1  0.27211  0.52211  0.75000  1
 As  As7  1  0.97789  0.25000  0.22789  1
 As  As8  1  0.52211  0.75000  0.27211  1
 As  As9  1  0.75000  0.77211  0.02211  1
 As  As10  1  0.72789  0.47789  0.25000  1
 As  As11  1  0.47789  0.25000  0.72789  1
 As  As12  1  0.02211  0.75000  0.77211  1
 As  As13  1  0.25000  0.72789  0.47789  1
 As  As14  1  0.00000  0.00000  0.50000  1
 As  As15  1  0.77211  0.02211  0.75000  1
 As  As16  1  0.75000  0.27211  0.52211  1
 Mg  Mg1  1  0.03171  0.26614  0.00729  1
 Mg  Mg2  1  0.75884  0.02442  0.49271  1
 Mg  Mg3  1  0.74116  0.23386  0.26558  1
 Mg  Mg4  1  0.49271  0.75884  0.02442  1
 Mg  Mg5  1  0.02442  0.49271  0.75884  1
 Mg  Mg6  1  0.46829  0.47558  0.23442  1
 Mg  Mg7  1  0.53171  0.52442  0.76558  1
 Mg  Mg8  1  0.24116  0.97558  0.50729  1
 Mg  Mg9  1  0.73442  0.25884  0.76614  1
 Mg  Mg10  1  0.96829  0.73386  0.99271  1
 Mg  Mg11  1  0.25884  0.76614  0.73442  1
 Mg  Mg12  1  0.99271  0.96829  0.73386  1
 Mg  Mg13  1  0.52442  0.76558  0.53171  1
 Mg  Mg14  1  0.23442  0.46829  0.47558  1
 Mg  Mg15  1  0.76558  0.53171  0.52442  1
 Mg  Mg16  1  0.76614  0.73442  0.25884  1
 Mg  Mg17  1  0.97558  0.50729  0.24116  1
 Mg  Mg18  1  0.50729  0.24116  0.97558  1
 Mg  Mg19  1  0.00729  0.03171  0.26614  1
 Mg  Mg20  1  0.47558  0.23442  0.46829  1
 Mg  Mg21  1  0.23386  0.26558  0.74116  1
 Mg  Mg22  1  0.26614  0.00729  0.03171  1
 Mg  Mg23  1  0.73386  0.99271  0.96829  1
 Mg  Mg24  1  0.26558  0.74116  0.23386  1
