CIF file written using JARVIS-Tools package.
data_Sr2CN2Cl2
_symmetry_space_group_name_H-M  'C2/m'
_cell_length_a       4.24281
_cell_length_b       5.29498
_cell_length_c       7.26486
_cell_angle_alpha    97.5044
_cell_angle_beta     90
_cell_angle_gamma    113.619

_symmetry_Int_Tables_number  12
_chemical_formula_structural  Sr2CN2Cl2
_chemical_formula_sum  Sr2CN2Cl2
_cell_volume  148.01084386300312
_cell_formula_units_Z  1
loop_
  _symmetry_equiv_pos_site_id
 _symmetry_equiv_pos_as_xyz
 1  'x, y, z'
loop_
 _atom_site_type_symbol
 _atom_site_label
 _atom_site_symmetry_multiplicity
 _atom_site_fract_x
 _atom_site_fract_y
 _atom_site_fract_z
 _atom_site_fract_occupancy
 C  C1  1  -0.00000  -0.00000  0.50000  1
 Cl  Cl1  1  0.37130  0.74261  0.14894  1
 Cl  Cl2  1  0.62870  0.25739  0.85106  1
 N  N1  1  0.11492  0.22983  0.44552  1
 N  N2  1  0.88508  0.77017  0.55448  1
 Sr  Sr1  1  0.68254  0.36508  0.27008  1
 Sr  Sr2  1  0.31746  0.63492  0.72992  1
