CIF file written using JARVIS-Tools package.
data_Na4Ti5O12
_symmetry_space_group_name_H-M  'P-3'
_cell_length_a       5.35262
_cell_length_b       5.35262
_cell_length_c       9.59432
_cell_angle_alpha    90
_cell_angle_beta     90
_cell_angle_gamma    120

_symmetry_Int_Tables_number  147
_chemical_formula_structural  Na4Ti5O12
_chemical_formula_sum  Na4Ti5O2
_cell_volume  238.05473477351802
_cell_formula_units_Z  1
loop_
  _symmetry_equiv_pos_site_id
 _symmetry_equiv_pos_as_xyz
 1  'x, y, z'
loop_
 _atom_site_type_symbol
 _atom_site_label
 _atom_site_symmetry_multiplicity
 _atom_site_fract_x
 _atom_site_fract_y
 _atom_site_fract_z
 _atom_site_fract_occupancy
 Na  Na1  1  0.66667  0.33333  0.38899  1
 Na  Na2  1  0.33333  0.66667  0.59437  1
 Na  Na3  1  0.00000  0.00000  0.80363  1
 Na  Na4  1  0.00000  0.00000  0.17983  1
 O  O1  1  0.42763  0.01578  0.86925  1
 O  O2  1  0.41186  0.42764  0.11418  1
 O  O3  1  0.98422  0.41184  0.86925  1
 O  O4  1  0.76374  0.09578  0.61302  1
 O  O5  1  0.58816  0.57237  0.86925  1
 O  O6  1  0.01577  0.58814  0.11418  1
 O  O7  1  0.66795  0.76374  0.37041  1
 O  O8  1  0.57236  0.98423  0.11418  1
 O  O9  1  0.90422  0.66796  0.61302  1
 O  O10  1  0.33204  0.23626  0.61302  1
 O  O11  1  0.09579  0.33205  0.37041  1
 O  O12  1  0.23626  0.90421  0.37041  1
 Ti  Ti1  1  0.66667  0.33333  0.70917  1
 Ti  Ti2  1  0.66667  0.33333  0.02029  1
 Ti  Ti3  1  0.33333  0.66667  0.27426  1
 Ti  Ti4  1  0.00000  0.00000  0.49172  1
 Ti  Ti5  1  0.33333  0.66667  0.96313  1
