CIF file written using JARVIS-Tools package.
data_Ga
_symmetry_space_group_name_H-M  'Cmce'
_cell_length_a       4.48805
_cell_length_b       4.48805
_cell_length_c       4.55922
_cell_angle_alpha    90
_cell_angle_beta     90
_cell_angle_gamma    118.119

_symmetry_Int_Tables_number  64
_chemical_formula_structural  Ga
_chemical_formula_sum  Ga4
_cell_volume  80.99545888485183
_cell_formula_units_Z  4
loop_
  _symmetry_equiv_pos_site_id
 _symmetry_equiv_pos_as_xyz
 1  'x, y, z'
loop_
 _atom_site_type_symbol
 _atom_site_label
 _atom_site_symmetry_multiplicity
 _atom_site_fract_x
 _atom_site_fract_y
 _atom_site_fract_z
 _atom_site_fract_occupancy
 Ga  Ga1  1  0.15611  0.84389  0.91389  1
 Ga  Ga2  1  0.34389  0.65611  0.41389  1
 Ga  Ga3  1  0.84389  0.15611  0.08611  1
 Ga  Ga4  1  0.65611  0.34389  0.58611  1
