CIF file written using JARVIS-Tools package.
data_Li2CuP
_symmetry_space_group_name_H-M  'P6_3/mmc'
_cell_length_a       4.0437
_cell_length_b       4.0437
_cell_length_c       7.67546
_cell_angle_alpha    90
_cell_angle_beta     90
_cell_angle_gamma    120

_symmetry_Int_Tables_number  194
_chemical_formula_structural  Li2CuP
_chemical_formula_sum  Li4Cu2P2
_cell_volume  108.69127611543774
_cell_formula_units_Z  2
loop_
  _symmetry_equiv_pos_site_id
 _symmetry_equiv_pos_as_xyz
 1  'x, y, z'
loop_
 _atom_site_type_symbol
 _atom_site_label
 _atom_site_symmetry_multiplicity
 _atom_site_fract_x
 _atom_site_fract_y
 _atom_site_fract_z
 _atom_site_fract_occupancy
 Cu  Cu1  1  0.00000  0.00000  0.25000  1
 Cu  Cu2  1  0.00000  0.00000  0.75000  1
 Li  Li1  1  0.66667  0.33333  0.08372  1
 Li  Li2  1  0.33333  0.66667  0.58372  1
 Li  Li3  1  0.66667  0.33333  0.41628  1
 Li  Li4  1  0.33333  0.66667  0.91628  1
 P  P1  1  0.66667  0.33333  0.75000  1
 P  P2  1  0.33333  0.66667  0.25000  1
