CIF file written using JARVIS-Tools package.
data_WSe2
_symmetry_space_group_name_H-M  'P-3m1'
_cell_length_a       3.32765
_cell_length_b       3.32765
_cell_length_c       35.4115
_cell_angle_alpha    90
_cell_angle_beta     90
_cell_angle_gamma    120

_symmetry_Int_Tables_number  164
_chemical_formula_structural  WSe2
_chemical_formula_sum  W4Se8
_cell_volume  339.5860618052788
_cell_formula_units_Z  4
loop_
  _symmetry_equiv_pos_site_id
 _symmetry_equiv_pos_as_xyz
 1  'x, y, z'
loop_
 _atom_site_type_symbol
 _atom_site_label
 _atom_site_symmetry_multiplicity
 _atom_site_fract_x
 _atom_site_fract_y
 _atom_site_fract_z
 _atom_site_fract_occupancy
 Se  Se1  1  0.33333  0.66667  0.32956  1
 Se  Se2  1  0.33333  0.66667  0.70310  1
 Se  Se3  1  0.66667  0.33333  0.14273  1
 Se  Se4  1  0.66667  0.33333  0.51631  1
 Se  Se5  1  0.33333  0.66667  0.23455  1
 Se  Se6  1  0.33333  0.66667  0.60813  1
 Se  Se7  1  0.66667  0.33333  0.04776  1
 Se  Se8  1  0.66667  0.33333  0.42130  1
 W  W1  1  0.66667  0.33333  0.28205  1
 W  W2  1  0.66667  0.33333  0.65564  1
 W  W3  1  0.33333  0.66667  0.09522  1
 W  W4  1  0.33333  0.66667  0.46880  1
