CIF file written using JARVIS-Tools package.
data_Sm3MnAlS7
_symmetry_space_group_name_H-M  'P6_3'
_cell_length_a       9.66927
_cell_length_b       6.13869
_cell_length_c       9.66928
_cell_angle_alpha    90
_cell_angle_beta     120
_cell_angle_gamma    90

_symmetry_Int_Tables_number  173
_chemical_formula_structural  Sm3MnAlS7
_chemical_formula_sum  Sm6Mn2Al2S4
_cell_volume  497.04192707610656
_cell_formula_units_Z  2
loop_
  _symmetry_equiv_pos_site_id
 _symmetry_equiv_pos_as_xyz
 1  'x, y, z'
loop_
 _atom_site_type_symbol
 _atom_site_label
 _atom_site_symmetry_multiplicity
 _atom_site_fract_x
 _atom_site_fract_y
 _atom_site_fract_z
 _atom_site_fract_occupancy
 Al  Al1  1  0.66667  0.65112  0.33333  1
 Al  Al2  1  0.33333  0.15112  0.66667  1
 Mn  Mn1  1  0.00000  0.06053  0.00000  1
 Mn  Mn2  1  -0.00000  0.56053  -0.00000  1
 S  S1  1  0.91215  0.50613  0.43660  1
 S  S2  1  0.66667  0.01265  0.33333  1
 S  S3  1  0.43660  0.00613  0.52445  1
 S  S4  1  0.22100  0.81518  0.12440  1
 S  S5  1  0.77900  0.31518  0.87560  1
 S  S6  1  0.87560  0.81518  0.09660  1
 S  S7  1  0.33333  0.51265  0.66667  1
 S  S8  1  0.09660  0.31518  0.22099  1
 S  S9  1  0.12440  0.31518  0.90340  1
 S  S10  1  0.08785  0.00613  0.56340  1
 S  S11  1  0.47555  0.00613  0.91215  1
 S  S12  1  0.90340  0.81518  0.77901  1
 S  S13  1  0.56340  0.50613  0.47555  1
 S  S14  1  0.52445  0.50613  0.08785  1
 Sm  Sm1  1  0.21466  0.72526  0.83960  1
 Sm  Sm2  1  0.16040  0.72526  0.37507  1
 Sm  Sm3  1  0.83960  0.22526  0.62493  1
 Sm  Sm4  1  0.78534  0.22526  0.16040  1
 Sm  Sm5  1  0.62493  0.72526  0.78534  1
 Sm  Sm6  1  0.37507  0.22526  0.21466  1
