CIF file written using JARVIS-Tools package.
data_Sr4In2N
_symmetry_space_group_name_H-M  'I4_1/amd'
_cell_length_a       5.23726
_cell_length_b       5.23725
_cell_length_c       15.6654
_cell_angle_alpha    99.6227
_cell_angle_beta     99.6227
_cell_angle_gamma    90

_symmetry_Int_Tables_number  141
_chemical_formula_structural  Sr4In2N
_chemical_formula_sum  Sr8In4N2
_cell_volume  417.505655560014
_cell_formula_units_Z  2
loop_
  _symmetry_equiv_pos_site_id
 _symmetry_equiv_pos_as_xyz
 1  'x, y, z'
loop_
 _atom_site_type_symbol
 _atom_site_label
 _atom_site_symmetry_multiplicity
 _atom_site_fract_x
 _atom_site_fract_y
 _atom_site_fract_z
 _atom_site_fract_occupancy
 In  In1  1  0.78534  0.53534  0.07067  1
 In  In2  1  0.03534  0.28534  0.57067  1
 In  In3  1  0.96466  0.71466  0.42933  1
 In  In4  1  0.21466  0.46466  0.92933  1
 N  N1  1  0.62500  0.87500  0.75000  1
 N  N2  1  0.37500  0.12500  0.25000  1
 Sr  Sr1  1  0.54227  0.79227  0.58454  1
 Sr  Sr2  1  0.37483  0.62483  0.24966  1
 Sr  Sr3  1  0.70773  0.95773  0.91546  1
 Sr  Sr4  1  0.29227  0.04227  0.08454  1
 Sr  Sr5  1  0.45773  0.20773  0.41546  1
 Sr  Sr6  1  0.87517  0.12517  0.25034  1
 Sr  Sr7  1  0.62517  0.37517  0.75034  1
 Sr  Sr8  1  0.12483  0.87483  0.74966  1
