CIF file written using JARVIS-Tools package.
data_I
_symmetry_space_group_name_H-M  'Immm'
_cell_length_a       2.99813
_cell_length_b       3.68724
_cell_length_c       4.37832
_cell_angle_alpha    114.892
_cell_angle_beta     109.999
_cell_angle_gamma    90.0235

_symmetry_Int_Tables_number  71
_chemical_formula_structural  I
_chemical_formula_sum  I
_cell_volume  40.66144596436682
_cell_formula_units_Z  1
loop_
  _symmetry_equiv_pos_site_id
 _symmetry_equiv_pos_as_xyz
 1  'x, y, z'
loop_
 _atom_site_type_symbol
 _atom_site_label
 _atom_site_symmetry_multiplicity
 _atom_site_fract_x
 _atom_site_fract_y
 _atom_site_fract_z
 _atom_site_fract_occupancy
 I  I1  1  0.01732  0.99544  0.00332  1
