CIF file written using JARVIS-Tools package.
data_Sr2Si5N8
_symmetry_space_group_name_H-M  'Pmn2_1'
_cell_length_a       5.74905
_cell_length_b       6.86736
_cell_length_c       9.40843
_cell_angle_alpha    90
_cell_angle_beta     90
_cell_angle_gamma    90

_symmetry_Int_Tables_number  31
_chemical_formula_structural  Sr2Si5N8
_chemical_formula_sum  Sr4Si0N6
_cell_volume  371.45204270272654
_cell_formula_units_Z  2
loop_
  _symmetry_equiv_pos_site_id
 _symmetry_equiv_pos_as_xyz
 1  'x, y, z'
loop_
 _atom_site_type_symbol
 _atom_site_label
 _atom_site_symmetry_multiplicity
 _atom_site_fract_x
 _atom_site_fract_y
 _atom_site_fract_z
 _atom_site_fract_occupancy
 N  N1  1  0.25064  0.55574  0.51123  1
 N  N2  1  0.00000  0.18950  0.52106  1
 N  N3  1  0.00000  0.42706  0.27173  1
 N  N4  1  0.50000  0.82627  0.33863  1
 N  N5  1  0.00000  0.17373  0.83863  1
 N  N6  1  0.50000  0.41341  0.27359  1
 N  N7  1  0.00000  0.58659  0.77359  1
 N  N8  1  0.50000  0.57294  0.77173  1
 N  N9  1  0.75064  0.44426  0.01123  1
 N  N10  1  0.24936  0.44426  0.01123  1
 N  N11  1  0.74828  0.08653  0.17183  1
 N  N12  1  0.75172  0.91347  0.67183  1
 N  N13  1  0.25172  0.08653  0.17183  1
 N  N14  1  0.24828  0.91347  0.67183  1
 N  N15  1  0.50000  0.81050  0.02106  1
 N  N16  1  0.74936  0.55574  0.51123  1
 Si  Si1  1  0.50000  0.94515  0.17736  1
 Si  Si2  1  0.50000  0.59828  0.40218  1
 Si  Si3  1  0.00000  0.40172  0.90218  1
 Si  Si4  1  0.50000  0.58020  0.96103  1
 Si  Si5  1  0.00000  0.41980  0.46103  1
 Si  Si6  1  0.75207  0.33290  0.18308  1
 Si  Si7  1  0.00000  0.05485  0.67736  1
 Si  Si8  1  0.74793  0.66710  0.68308  1
 Si  Si9  1  0.24793  0.33290  0.18308  1
 Si  Si10  1  0.25207  0.66710  0.68308  1
 Sr  Sr1  1  0.00000  0.87161  0.00030  1
 Sr  Sr2  1  0.50000  0.12839  0.50030  1
 Sr  Sr3  1  0.00000  0.88284  0.36719  1
 Sr  Sr4  1  0.50000  0.11716  0.86719  1
