CIF file written using JARVIS-Tools package.
data_Sm3Si2S8Br
_symmetry_space_group_name_H-M  'C2/c'
_cell_length_a       7.60607
_cell_length_b       8.70176
_cell_length_c       10.8552
_cell_angle_alpha    98.3391
_cell_angle_beta     90
_cell_angle_gamma    115.915

_symmetry_Int_Tables_number  15
_chemical_formula_structural  Sm3Si2S8Br
_chemical_formula_sum  Sm6Si4S6Br2
_cell_volume  637.760086230866
_cell_formula_units_Z  2
loop_
  _symmetry_equiv_pos_site_id
 _symmetry_equiv_pos_as_xyz
 1  'x, y, z'
loop_
 _atom_site_type_symbol
 _atom_site_label
 _atom_site_symmetry_multiplicity
 _atom_site_fract_x
 _atom_site_fract_y
 _atom_site_fract_z
 _atom_site_fract_occupancy
 Br  Br1  1  0.01388  0.00000  0.25000  1
 Br  Br2  1  0.98612  -0.00000  0.75000  1
 S  S1  1  0.61110  0.71300  0.35856  1
 S  S2  1  0.73195  0.13156  0.53587  1
 S  S3  1  0.54891  0.29010  0.33108  1
 S  S4  1  0.85206  0.56838  0.58627  1
 S  S5  1  0.10190  0.71300  0.85856  1
 S  S6  1  0.28368  0.43162  0.91373  1
 S  S7  1  0.74119  0.29010  0.83108  1
 S  S8  1  0.71632  0.56838  0.08627  1
 S  S9  1  0.25881  0.70990  0.16892  1
 S  S10  1  0.45109  0.70990  0.66892  1
 S  S11  1  0.14794  0.43162  0.41373  1
 S  S12  1  0.38890  0.28700  0.64144  1
 S  S13  1  0.26805  0.86844  0.46413  1
 S  S14  1  0.89810  0.28700  0.14144  1
 S  S15  1  0.60039  0.86844  0.96413  1
 S  S16  1  0.39961  0.13156  0.03587  1
 Si  Si1  1  0.69382  0.31552  0.02432  1
 Si  Si2  1  0.37831  0.68448  0.47568  1
 Si  Si3  1  0.30618  0.68448  0.97568  1
 Si  Si4  1  0.62169  0.31552  0.52432  1
 Sm  Sm1  1  0.67836  0.60316  0.81844  1
 Sm  Sm2  1  0.32164  0.39684  0.18156  1
 Sm  Sm3  1  0.92480  0.60316  0.31844  1
 Sm  Sm4  1  0.62645  0.00000  0.25000  1
 Sm  Sm5  1  0.37355  -0.00000  0.75000  1
 Sm  Sm6  1  0.07520  0.39684  0.68156  1
