CIF file written using JARVIS-Tools package.
data_Ti2Pd
_symmetry_space_group_name_H-M  'I4/mmm'
_cell_length_a       3.11269
_cell_length_b       3.11269
_cell_length_c       5.42901
_cell_angle_alpha    106.659
_cell_angle_beta     106.659
_cell_angle_gamma    90.0001

_symmetry_Int_Tables_number  139
_chemical_formula_structural  Ti2Pd
_chemical_formula_sum  Ti2Pd
_cell_volume  48.084042004050815
_cell_formula_units_Z  1
loop_
  _symmetry_equiv_pos_site_id
 _symmetry_equiv_pos_as_xyz
 1  'x, y, z'
loop_
 _atom_site_type_symbol
 _atom_site_label
 _atom_site_symmetry_multiplicity
 _atom_site_fract_x
 _atom_site_fract_y
 _atom_site_fract_z
 _atom_site_fract_occupancy
 Pd  Pd1  1  0.00000  0.00000  0.00000  1
 Ti  Ti1  1  0.66469  0.66469  0.32937  1
 Ti  Ti2  1  0.33531  0.33531  0.67063  1
