CIF file written using JARVIS-Tools package.
data_BaSi6N8O
_symmetry_space_group_name_H-M  'Imm2'
_cell_length_a       4.87675
_cell_length_b       6.83011
_cell_length_c       6.83011
_cell_angle_alpha    73.5051
_cell_angle_beta     69.0837
_cell_angle_gamma    69.0837

_symmetry_Int_Tables_number  44
_chemical_formula_structural  BaSi6N8O
_chemical_formula_sum  BaSi6N8O
_cell_volume  195.28889812549937
_cell_formula_units_Z  1
loop_
  _symmetry_equiv_pos_site_id
 _symmetry_equiv_pos_as_xyz
 1  'x, y, z'
loop_
 _atom_site_type_symbol
 _atom_site_label
 _atom_site_symmetry_multiplicity
 _atom_site_fract_x
 _atom_site_fract_y
 _atom_site_fract_z
 _atom_site_fract_occupancy
 Ba  Ba1  1  0.49571  0.50000  0.50000  1
 N  N1  1  0.05139  0.72610  0.27390  1
 N  N2  1  0.90432  0.95329  0.60289  1
 N  N3  1  0.05139  0.27390  0.72610  1
 N  N4  1  0.98789  0.18719  0.18719  1
 N  N5  1  0.90432  0.60289  0.95329  1
 N  N6  1  0.36226  0.81281  0.81281  1
 N  N7  1  0.46050  0.39711  0.04671  1
 N  N8  1  0.46050  0.04671  0.39711  1
 O  O1  1  0.61081  0.00000  0.00000  1
 Si  Si1  1  0.18004  0.64456  0.03761  1
 Si  Si2  1  0.68606  0.83891  0.83891  1
 Si  Si3  1  0.18004  0.03761  0.64456  1
 Si  Si4  1  0.36387  0.16109  0.16109  1
 Si  Si5  1  0.86220  0.96239  0.35544  1
 Si  Si6  1  0.86220  0.35544  0.96239  1
