data_image0
_chemical_formula_structural       O6Ti2Zn2
_chemical_formula_sum              "O6 Ti2 Zn2"
_cell_length_a       5.47783
_cell_length_b       5.47783
_cell_length_c       5.47783
_cell_angle_alpha    55.3748
_cell_angle_beta     55.3748
_cell_angle_gamma    55.3748

_space_group_name_H-M_alt    "P 1"
_space_group_IT_number       1

loop_
  _space_group_symop_operation_xyz
  'x, y, z'

loop_
  _atom_site_type_symbol
  _atom_site_label
  _atom_site_symmetry_multiplicity
  _atom_site_fract_x
  _atom_site_fract_y
  _atom_site_fract_z
  _atom_site_occupancy
  O   O1        1.0  0.77300  0.43800  0.04960  1.0000
  O   O2        1.0  0.56200  0.95000  0.22700  1.0000
  O   O3        1.0  0.04960  0.77300  0.43800  1.0000
  O   O4        1.0  0.95000  0.22700  0.56200  1.0000
  O   O5        1.0  0.43800  0.04960  0.77300  1.0000
  O   O6        1.0  0.22700  0.56200  0.95000  1.0000
  Ti  Ti1       1.0  0.14700  0.14700  0.14700  1.0000
  Ti  Ti2       1.0  0.85300  0.85300  0.85300  1.0000
  Zn  Zn1       1.0  0.36000  0.36000  0.36000  1.0000
  Zn  Zn2       1.0  0.64000  0.64000  0.64000  1.0000
