CIF file written using JARVIS-Tools package.
data_YbCdCu4
_symmetry_space_group_name_H-M  'F-43m'
_cell_length_a       5.05946
_cell_length_b       5.05946
_cell_length_c       5.05946
_cell_angle_alpha    60
_cell_angle_beta     60
_cell_angle_gamma    60

_symmetry_Int_Tables_number  216
_chemical_formula_structural  YbCdCu4
_chemical_formula_sum  YbCdCu4
_cell_volume  91.57913122425774
_cell_formula_units_Z  1
loop_
  _symmetry_equiv_pos_site_id
 _symmetry_equiv_pos_as_xyz
 1  'x, y, z'
loop_
 _atom_site_type_symbol
 _atom_site_label
 _atom_site_symmetry_multiplicity
 _atom_site_fract_x
 _atom_site_fract_y
 _atom_site_fract_z
 _atom_site_fract_occupancy
 Cd  Cd1  1  0.00000  0.00000  0.00000  1
 Cu  Cu1  1  0.87587  0.37471  0.37471  1
 Cu  Cu2  1  0.37471  0.37471  0.37471  1
 Cu  Cu3  1  0.37471  0.37471  0.87587  1
 Cu  Cu4  1  0.37471  0.87587  0.37471  1
 Yb  Yb1  1  0.75000  0.75000  0.75000  1
