CIF file written using JARVIS-Tools package.
data_Rb
_symmetry_space_group_name_H-M  'Cmcm'
_cell_length_a       4.95013
_cell_length_b       4.95608
_cell_length_c       8.06383
_cell_angle_alpha    90
_cell_angle_beta     90
_cell_angle_gamma    60.0397

_symmetry_Int_Tables_number  63
_chemical_formula_structural  Rb
_chemical_formula_sum  Rb2
_cell_volume  171.39625209651965
_cell_formula_units_Z  2
loop_
  _symmetry_equiv_pos_site_id
 _symmetry_equiv_pos_as_xyz
 1  'x, y, z'
loop_
 _atom_site_type_symbol
 _atom_site_label
 _atom_site_symmetry_multiplicity
 _atom_site_fract_x
 _atom_site_fract_y
 _atom_site_fract_z
 _atom_site_fract_occupancy
 Rb  Rb1  1  0.83405  0.33190  0.25000  1
 Rb  Rb2  1  0.16595  0.66810  0.75000  1
