CIF file written using JARVIS-Tools package.
data_Tl3Ru
_symmetry_space_group_name_H-M  'P6_3/mmc'
_cell_length_a       6.33386
_cell_length_b       6.33386
_cell_length_c       5.35492
_cell_angle_alpha    90
_cell_angle_beta     90
_cell_angle_gamma    120

_symmetry_Int_Tables_number  194
_chemical_formula_structural  Tl3Ru
_chemical_formula_sum  Tl6Ru2
_cell_volume  186.04592857492113
_cell_formula_units_Z  2
loop_
  _symmetry_equiv_pos_site_id
 _symmetry_equiv_pos_as_xyz
 1  'x, y, z'
loop_
 _atom_site_type_symbol
 _atom_site_label
 _atom_site_symmetry_multiplicity
 _atom_site_fract_x
 _atom_site_fract_y
 _atom_site_fract_z
 _atom_site_fract_occupancy
 Ru  Ru1  1  0.33333  0.66667  0.25000  1
 Ru  Ru2  1  0.66667  0.33333  0.75000  1
 Tl  Tl1  1  0.17197  0.82803  0.75000  1
 Tl  Tl2  1  0.65606  0.82803  0.75000  1
 Tl  Tl3  1  0.17197  0.34394  0.75000  1
 Tl  Tl4  1  0.82803  0.17197  0.25000  1
 Tl  Tl5  1  0.34394  0.17197  0.25000  1
 Tl  Tl6  1  0.82803  0.65606  0.25000  1
