CIF file written using JARVIS-Tools package.
data_Re2C
_symmetry_space_group_name_H-M  'P6_3/mmc'
_cell_length_a       2.87268
_cell_length_b       2.87268
_cell_length_c       9.93302
_cell_angle_alpha    90
_cell_angle_beta     90
_cell_angle_gamma    120

_symmetry_Int_Tables_number  194
_chemical_formula_structural  Re2C
_chemical_formula_sum  Re4C2
_cell_volume  70.98792066224912
_cell_formula_units_Z  2
loop_
  _symmetry_equiv_pos_site_id
 _symmetry_equiv_pos_as_xyz
 1  'x, y, z'
loop_
 _atom_site_type_symbol
 _atom_site_label
 _atom_site_symmetry_multiplicity
 _atom_site_fract_x
 _atom_site_fract_y
 _atom_site_fract_z
 _atom_site_fract_occupancy
 C  C1  1  0.33333  0.66667  0.75000  1
 C  C2  1  0.66667  0.33333  0.25000  1
 Re  Re1  1  0.33333  0.66667  0.39180  1
 Re  Re2  1  0.66667  0.33333  0.89180  1
 Re  Re3  1  0.66667  0.33333  0.60820  1
 Re  Re4  1  0.33333  0.66667  0.10820  1
