CIF file written using JARVIS-Tools package.
data_Mo2WSe2S4
_symmetry_space_group_name_H-M  'P3m1'
_cell_length_a       3.23467
_cell_length_b       3.23467
_cell_length_c       29.7214
_cell_angle_alpha    90.0006
_cell_angle_beta     90
_cell_angle_gamma    120

_symmetry_Int_Tables_number  156
_chemical_formula_structural  Mo2WSe2S4
_chemical_formula_sum  Mo2WSe2S4
_cell_volume  269.31504423392425
_cell_formula_units_Z  1
loop_
  _symmetry_equiv_pos_site_id
 _symmetry_equiv_pos_as_xyz
 1  'x, y, z'
loop_
 _atom_site_type_symbol
 _atom_site_label
 _atom_site_symmetry_multiplicity
 _atom_site_fract_x
 _atom_site_fract_y
 _atom_site_fract_z
 _atom_site_fract_occupancy
 Mo  Mo1  1  0.33331  0.66662  0.11567  1
 Mo  Mo2  1  0.66669  0.33338  0.34696  1
 S  S1  1  0.33336  0.66671  0.39920  1
 S  S2  1  0.66664  0.33328  0.06358  1
 S  S3  1  0.66665  0.33330  0.16789  1
 S  S4  1  0.33335  0.66670  0.29474  1
 Se  Se1  1  0.66664  0.33328  0.52057  1
 Se  Se2  1  0.66665  0.33330  0.63592  1
 W  W1  1  0.33331  0.66662  0.57832  1
