CIF file written using JARVIS-Tools package.
data_TeW2Se2S
_symmetry_space_group_name_H-M  'P3m1'
_cell_length_a       3.3454
_cell_length_b       3.34542
_cell_length_c       36.1068
_cell_angle_alpha    89.9986
_cell_angle_beta     89.9997
_cell_angle_gamma    120

_symmetry_Int_Tables_number  156
_chemical_formula_structural  TeW2Se2S
_chemical_formula_sum  Te2W4Se4S2
_cell_volume  349.96107260781463
_cell_formula_units_Z  2
loop_
  _symmetry_equiv_pos_site_id
 _symmetry_equiv_pos_as_xyz
 1  'x, y, z'
loop_
 _atom_site_type_symbol
 _atom_site_label
 _atom_site_symmetry_multiplicity
 _atom_site_fract_x
 _atom_site_fract_y
 _atom_site_fract_z
 _atom_site_fract_occupancy
 S  S1  1  0.66679  0.33358  0.05102  1
 S  S2  1  0.66676  0.33356  0.13539  1
 Se  Se1  1  0.33326  0.66649  0.70241  1
 Se  Se2  1  0.66657  0.33314  0.42719  1
 Se  Se3  1  0.66653  0.33309  0.51994  1
 Se  Se4  1  0.33330  0.66654  0.60973  1
 Te  Te1  1  0.33337  0.66677  0.33298  1
 Te  Te2  1  0.33342  0.66684  0.22716  1
 W  W1  1  0.33344  0.66690  0.09317  1
 W  W2  1  0.33322  0.66646  0.47358  1
 W  W3  1  0.66672  0.33345  0.28008  1
 W  W4  1  0.66662  0.33319  0.65610  1
