CIF file written using JARVIS-Tools package.
data_Te3MoWSe
_symmetry_space_group_name_H-M  'Cm'
_cell_length_a       3.50785
_cell_length_b       3.50773
_cell_length_c       35.5019
_cell_angle_alpha    90.0264
_cell_angle_beta     90
_cell_angle_gamma    120.001

_symmetry_Int_Tables_number  8
_chemical_formula_structural  Te3MoWSe
_chemical_formula_sum  Te6Mo2W2Se2
_cell_volume  378.30588558541007
_cell_formula_units_Z  2
loop_
  _symmetry_equiv_pos_site_id
 _symmetry_equiv_pos_as_xyz
 1  'x, y, z'
loop_
 _atom_site_type_symbol
 _atom_site_label
 _atom_site_symmetry_multiplicity
 _atom_site_fract_x
 _atom_site_fract_y
 _atom_site_fract_z
 _atom_site_fract_occupancy
 Mo  Mo1  1  0.33518  0.67036  0.08040  1
 Mo  Mo2  1  0.33279  0.66558  0.47411  1
 Se  Se1  1  0.66598  0.33196  0.42859  1
 Se  Se2  1  0.66618  0.33236  0.51964  1
 Te  Te1  1  0.33382  0.66765  0.33509  1
 Te  Te2  1  0.33185  0.66369  0.71699  1
 Te  Te3  1  0.66840  0.33680  0.02881  1
 Te  Te4  1  0.66869  0.33738  0.13209  1
 Te  Te5  1  0.33354  0.66707  0.23133  1
 Te  Te6  1  0.33157  0.66315  0.61329  1
 W  W1  1  0.66697  0.33394  0.28322  1
 W  W2  1  0.66503  0.33007  0.66518  1
