CIF file written using JARVIS-Tools package.
data_PrFeGe2
_symmetry_space_group_name_H-M  'Cmcm'
_cell_length_a       8.53303
_cell_length_b       8.53303
_cell_length_c       4.33577
_cell_angle_alpha    90
_cell_angle_beta     90
_cell_angle_gamma    29.5709

_symmetry_Int_Tables_number  63
_chemical_formula_structural  PrFeGe2
_chemical_formula_sum  Pr2Fe2Ge4
_cell_volume  155.79724856499232
_cell_formula_units_Z  2
loop_
  _symmetry_equiv_pos_site_id
 _symmetry_equiv_pos_as_xyz
 1  'x, y, z'
loop_
 _atom_site_type_symbol
 _atom_site_label
 _atom_site_symmetry_multiplicity
 _atom_site_fract_x
 _atom_site_fract_y
 _atom_site_fract_z
 _atom_site_fract_occupancy
 Fe  Fe1  1  0.68766  0.68766  0.75000  1
 Fe  Fe2  1  0.31234  0.31234  0.25000  1
 Ge  Ge1  1  0.45256  0.45256  0.25000  1
 Ge  Ge2  1  0.25003  0.25003  0.75000  1
 Ge  Ge3  1  0.54744  0.54744  0.75000  1
 Ge  Ge4  1  0.74997  0.74997  0.25000  1
 Pr  Pr1  1  0.89375  0.89375  0.75000  1
 Pr  Pr2  1  0.10625  0.10625  0.25000  1
