CIF file written using JARVIS-Tools package.
data_MgP4Rh6
_symmetry_space_group_name_H-M  'P-6m2'
_cell_length_a       7.10428
_cell_length_b       7.10428
_cell_length_c       3.55199
_cell_angle_alpha    90
_cell_angle_beta     90
_cell_angle_gamma    120

_symmetry_Int_Tables_number  187
_chemical_formula_structural  MgP4Rh6
_chemical_formula_sum  MgP4Rh6
_cell_volume  155.25435923192376
_cell_formula_units_Z  1
loop_
  _symmetry_equiv_pos_site_id
 _symmetry_equiv_pos_as_xyz
 1  'x, y, z'
loop_
 _atom_site_type_symbol
 _atom_site_label
 _atom_site_symmetry_multiplicity
 _atom_site_fract_x
 _atom_site_fract_y
 _atom_site_fract_z
 _atom_site_fract_occupancy
 Mg  Mg1  1  0.00000  0.00000  0.00000  1
 P  P1  1  0.81307  0.62613  0.50000  1
 P  P2  1  0.37387  0.18693  0.50000  1
 P  P3  1  0.33333  0.66667  0.00000  1
 P  P4  1  0.81307  0.18693  0.50000  1
 Rh  Rh1  1  0.19075  0.38151  0.50000  1
 Rh  Rh2  1  0.19075  0.80925  0.50000  1
 Rh  Rh3  1  0.53407  0.46593  0.00000  1
 Rh  Rh4  1  0.93185  0.46593  0.00000  1
 Rh  Rh5  1  0.53407  0.06815  0.00000  1
 Rh  Rh6  1  0.61849  0.80925  0.50000  1
