CIF file written using JARVIS-Tools package.
data_W2Se3S
_symmetry_space_group_name_H-M  'P3m1'
_cell_length_a       3.29227
_cell_length_b       3.29227
_cell_length_c       34.4967
_cell_angle_alpha    90.0001
_cell_angle_beta     90
_cell_angle_gamma    120

_symmetry_Int_Tables_number  156
_chemical_formula_structural  W2Se3S
_chemical_formula_sum  W4Se6S2
_cell_volume  323.81698878999623
_cell_formula_units_Z  2
loop_
  _symmetry_equiv_pos_site_id
 _symmetry_equiv_pos_as_xyz
 1  'x, y, z'
loop_
 _atom_site_type_symbol
 _atom_site_label
 _atom_site_symmetry_multiplicity
 _atom_site_fract_x
 _atom_site_fract_y
 _atom_site_fract_z
 _atom_site_fract_occupancy
 S  S1  1  0.33334  0.66667  0.32579  1
 S  S2  1  0.33332  0.66663  0.23637  1
 Se  Se1  1  0.33335  0.66669  0.70874  1
 Se  Se2  1  0.66663  0.33328  0.04613  1
 Se  Se3  1  0.66669  0.33337  0.41783  1
 Se  Se4  1  0.66667  0.33334  0.14437  1
 Se  Se5  1  0.66666  0.33332  0.51612  1
 Se  Se6  1  0.33335  0.66670  0.61048  1
 W  W1  1  0.33331  0.66664  0.09523  1
 W  W2  1  0.33334  0.66668  0.46697  1
 W  W3  1  0.66666  0.33331  0.28108  1
 W  W4  1  0.66668  0.33336  0.65964  1
