CIF file written using JARVIS-Tools package.
data_Mg3Ru2
_symmetry_space_group_name_H-M  'P4_132'
_cell_length_a       6.94028
_cell_length_b       6.94028
_cell_length_c       6.94028
_cell_angle_alpha    90
_cell_angle_beta     90
_cell_angle_gamma    90

_symmetry_Int_Tables_number  213
_chemical_formula_structural  Mg3Ru2
_chemical_formula_sum  Mg2Ru8
_cell_volume  334.2961989359299
_cell_formula_units_Z  4
loop_
  _symmetry_equiv_pos_site_id
 _symmetry_equiv_pos_as_xyz
 1  'x, y, z'
loop_
 _atom_site_type_symbol
 _atom_site_label
 _atom_site_symmetry_multiplicity
 _atom_site_fract_x
 _atom_site_fract_y
 _atom_site_fract_z
 _atom_site_fract_occupancy
 Mg  Mg1  1  0.62500  0.29442  0.54442  1
 Mg  Mg2  1  0.45558  0.12500  0.20558  1
 Mg  Mg3  1  0.70558  0.04442  0.87500  1
 Mg  Mg4  1  0.95558  0.37500  0.79442  1
 Mg  Mg5  1  0.29442  0.54442  0.62500  1
 Mg  Mg6  1  0.37500  0.79442  0.95558  1
 Mg  Mg7  1  0.54442  0.62500  0.29442  1
 Mg  Mg8  1  0.79442  0.95558  0.37500  1
 Mg  Mg9  1  0.12500  0.20558  0.45558  1
 Mg  Mg10  1  0.87500  0.70558  0.04442  1
 Mg  Mg11  1  0.20558  0.45558  0.12500  1
 Mg  Mg12  1  0.04442  0.87500  0.70558  1
 Ru  Ru1  1  0.82431  0.32431  0.17569  1
 Ru  Ru2  1  0.32431  0.17569  0.82431  1
 Ru  Ru3  1  0.67569  0.67569  0.67569  1
 Ru  Ru4  1  0.92569  0.57431  0.42569  1
 Ru  Ru5  1  0.57431  0.42569  0.92569  1
 Ru  Ru6  1  0.42569  0.92569  0.57431  1
 Ru  Ru7  1  0.17569  0.82431  0.32431  1
 Ru  Ru8  1  0.07431  0.07431  0.07431  1
