CIF file written using JARVIS-Tools package.
data_P2W
_symmetry_space_group_name_H-M  'C2/m'
_cell_length_a       3.22382
_cell_length_b       4.58803
_cell_length_c       6.77508
_cell_angle_alpha    80.259
_cell_angle_beta     76.2364
_cell_angle_gamma    69.4313

_symmetry_Int_Tables_number  12
_chemical_formula_structural  P2W
_chemical_formula_sum  P4W2
_cell_volume  90.72321204640295
_cell_formula_units_Z  2
loop_
  _symmetry_equiv_pos_site_id
 _symmetry_equiv_pos_as_xyz
 1  'x, y, z'
loop_
 _atom_site_type_symbol
 _atom_site_label
 _atom_site_symmetry_multiplicity
 _atom_site_fract_x
 _atom_site_fract_y
 _atom_site_fract_z
 _atom_site_fract_occupancy
 P  P1  1  0.13802  0.75001  0.97394  1
 P  P2  1  0.86198  0.24999  0.02606  1
 P  P3  1  0.40164  0.79905  0.39767  1
 P  P4  1  0.59836  0.20095  0.60233  1
 W  W1  1  0.84205  0.60940  0.70651  1
 W  W2  1  0.15795  0.39060  0.29349  1
