CIF file written using JARVIS-Tools package.
data_CdAu
_symmetry_space_group_name_H-M  'Pmma'
_cell_length_a       3.23652
_cell_length_b       4.81795
_cell_length_c       4.95607
_cell_angle_alpha    90
_cell_angle_beta     90
_cell_angle_gamma    90

_symmetry_Int_Tables_number  51
_chemical_formula_structural  CdAu
_chemical_formula_sum  Cd2Au2
_cell_volume  77.28203654384913
_cell_formula_units_Z  2
loop_
  _symmetry_equiv_pos_site_id
 _symmetry_equiv_pos_as_xyz
 1  'x, y, z'
loop_
 _atom_site_type_symbol
 _atom_site_label
 _atom_site_symmetry_multiplicity
 _atom_site_fract_x
 _atom_site_fract_y
 _atom_site_fract_z
 _atom_site_fract_occupancy
 Au  Au1  1  0.50000  0.75000  0.80343  1
 Au  Au2  1  0.50000  0.25000  0.19657  1
 Cd  Cd1  1  0.00000  0.75000  0.29831  1
 Cd  Cd2  1  0.00000  0.25000  0.70169  1
