CIF file written using JARVIS-Tools package.
data_K2Al2O3F2
_symmetry_space_group_name_H-M  'C2/m'
_cell_length_a       6.10966
_cell_length_b       6.9883
_cell_length_c       6.9883
_cell_angle_alpha    71.792
_cell_angle_beta     91.2953
_cell_angle_gamma    91.2953

_symmetry_Int_Tables_number  12
_chemical_formula_structural  K2Al2O3F2
_chemical_formula_sum  K4Al4O6F4
_cell_volume  283.3225997013513
_cell_formula_units_Z  2
loop_
  _symmetry_equiv_pos_site_id
 _symmetry_equiv_pos_as_xyz
 1  'x, y, z'
loop_
 _atom_site_type_symbol
 _atom_site_label
 _atom_site_symmetry_multiplicity
 _atom_site_fract_x
 _atom_site_fract_y
 _atom_site_fract_z
 _atom_site_fract_occupancy
 Al  Al1  1  0.85207  0.67216  0.07740  1
 Al  Al2  1  0.14793  0.92260  0.32784  1
 Al  Al3  1  0.85207  0.07740  0.67216  1
 Al  Al4  1  0.14793  0.32784  0.92260  1
 F  F1  1  0.39241  0.44894  0.81537  1
 F  F2  1  0.60759  0.55106  0.18463  1
 F  F3  1  0.60759  0.18463  0.55106  1
 F  F4  1  0.39241  0.81537  0.44894  1
 K  K1  1  0.66863  0.15965  0.15965  1
 K  K2  1  0.74316  0.60121  0.60121  1
 K  K3  1  0.25684  0.39879  0.39879  1
 K  K4  1  0.33137  0.84035  0.84035  1
 O  O1  1  0.00000  0.26675  0.73325  1
 O  O2  1  0.00000  0.00000  0.50000  1
 O  O3  1  0.00000  0.50000  0.00000  1
 O  O4  1  0.23603  0.12116  0.12116  1
 O  O5  1  0.00000  0.73325  0.26675  1
 O  O6  1  0.76397  0.87884  0.87884  1
