CIF file written using JARVIS-Tools package.
data_CuH6BrN2
_symmetry_space_group_name_H-M  'C2/c'
_cell_length_a       5.7189
_cell_length_b       6.829
_cell_length_c       7.18724
_cell_angle_alpha    61.6377
_cell_angle_beta     101.083
_cell_angle_gamma    113.87

_symmetry_Int_Tables_number  15
_chemical_formula_structural  CuH6BrN2
_chemical_formula_sum  Cu2H2Br2N4
_cell_volume  225.87307332186325
_cell_formula_units_Z  2
loop_
  _symmetry_equiv_pos_site_id
 _symmetry_equiv_pos_as_xyz
 1  'x, y, z'
loop_
 _atom_site_type_symbol
 _atom_site_label
 _atom_site_symmetry_multiplicity
 _atom_site_fract_x
 _atom_site_fract_y
 _atom_site_fract_z
 _atom_site_fract_occupancy
 Br  Br1  1  0.75000  0.63408  0.73182  1
 Br  Br2  1  0.25001  0.36591  0.26818  1
 Cu  Cu1  1  -0.00002  -0.00001  -0.00004  1
 Cu  Cu2  1  0.49998  -0.00004  0.00004  1
 H  H1  1  0.58804  0.90798  0.38243  1
 H  H2  1  0.78700  0.17476  0.22950  1
 H  H3  1  0.71300  0.59574  0.22949  1
 H  H4  1  0.48641  0.13949  0.25653  1
 H  H5  1  0.01362  0.60401  0.25650  1
 H  H6  1  0.08803  0.29040  0.61757  1
 H  H7  1  0.41196  0.09203  0.61762  1
 H  H8  1  0.98640  0.39601  0.74348  1
 H  H9  1  0.51361  0.86052  0.74348  1
 H  H10  1  0.28700  0.40425  0.77050  1
 H  H11  1  0.21300  0.82522  0.77051  1
 H  H12  1  0.91197  0.70965  0.38238  1
 N  N1  1  0.90183  0.69753  0.24279  1
 N  N2  1  0.09817  0.30248  0.75717  1
 N  N3  1  0.59817  0.05966  0.24283  1
 N  N4  1  0.40182  0.94032  0.75720  1
