CIF file written using JARVIS-Tools package.
data_Ba2Li3NbN4
_symmetry_space_group_name_H-M  'C2/c'
_cell_length_a       5.68103
_cell_length_b       6.32246
_cell_length_c       10.1511
_cell_angle_alpha    81.0694
_cell_angle_beta     73.75
_cell_angle_gamma    63.3051

_symmetry_Int_Tables_number  15
_chemical_formula_structural  Ba2Li3NbN4
_chemical_formula_sum  Ba4Li6Nb2N8
_cell_volume  312.54567031479405
_cell_formula_units_Z  2
loop_
  _symmetry_equiv_pos_site_id
 _symmetry_equiv_pos_as_xyz
 1  'x, y, z'
loop_
 _atom_site_type_symbol
 _atom_site_label
 _atom_site_symmetry_multiplicity
 _atom_site_fract_x
 _atom_site_fract_y
 _atom_site_fract_z
 _atom_site_fract_occupancy
 Ba  Ba1  1  0.63161  0.19306  0.61146  1
 Ba  Ba2  1  0.06388  0.69305  0.11146  1
 Ba  Ba3  1  0.36839  0.80694  0.38854  1
 Ba  Ba4  1  0.93612  0.30695  0.88854  1
 Li  Li1  1  0.11582  0.31143  0.54333  1
 Li  Li2  1  0.47059  0.18858  0.95667  1
 Li  Li3  1  0.61248  0.75001  0.75001  1
 Li  Li4  1  0.52941  0.81142  0.04333  1
 Li  Li5  1  0.38752  0.24999  0.24999  1
 Li  Li6  1  0.88418  0.68857  0.45667  1
 N  N1  1  0.41758  0.50558  0.83868  1
 N  N2  1  0.73816  0.00556  0.33868  1
 N  N3  1  0.78590  0.88937  0.88755  1
 N  N4  1  0.93716  0.38938  0.38755  1
 N  N5  1  0.58242  0.49442  0.16132  1
 N  N6  1  0.21410  0.11063  0.11245  1
 N  N7  1  0.26184  0.99444  0.66132  1
 N  N8  1  0.06284  0.61062  0.61245  1
 Nb  Nb1  1  0.86541  0.25000  0.25000  1
 Nb  Nb2  1  0.13459  0.75000  0.75000  1
