CIF file written using JARVIS-Tools package.
data_Ti3In3Rh2
_symmetry_space_group_name_H-M  'P-62m'
_cell_length_a       7.3274
_cell_length_b       7.3274
_cell_length_c       3.07002
_cell_angle_alpha    90
_cell_angle_beta     90
_cell_angle_gamma    120

_symmetry_Int_Tables_number  189
_chemical_formula_structural  Ti3In3Rh2
_chemical_formula_sum  Ti3In3Rh2
_cell_volume  142.7482535402985
_cell_formula_units_Z  1
loop_
  _symmetry_equiv_pos_site_id
 _symmetry_equiv_pos_as_xyz
 1  'x, y, z'
loop_
 _atom_site_type_symbol
 _atom_site_label
 _atom_site_symmetry_multiplicity
 _atom_site_fract_x
 _atom_site_fract_y
 _atom_site_fract_z
 _atom_site_fract_occupancy
 In  In1  1  0.00000  0.23720  0.00000  1
 In  In2  1  0.76280  0.76280  0.00000  1
 In  In3  1  0.23720  0.00000  0.00000  1
 Rh  Rh1  1  0.33333  0.66667  0.00000  1
 Rh  Rh2  1  0.66667  0.33333  0.00000  1
 Ti  Ti1  1  -0.00000  0.58280  0.50000  1
 Ti  Ti2  1  0.41720  0.41720  0.50000  1
 Ti  Ti3  1  0.58280  -0.00000  0.50000  1
