CIF file written using JARVIS-Tools package.
data_NbCl4
_symmetry_space_group_name_H-M  'C2/m'
_cell_length_a       6.86453
_cell_length_b       6.8048
_cell_length_c       7.02567
_cell_angle_alpha    72.9836
_cell_angle_beta     60.7559
_cell_angle_gamma    59.7092

_symmetry_Int_Tables_number  12
_chemical_formula_structural  NbCl4
_chemical_formula_sum  Nb2Cl8
_cell_volume  246.79363648007947
_cell_formula_units_Z  2
loop_
  _symmetry_equiv_pos_site_id
 _symmetry_equiv_pos_as_xyz
 1  'x, y, z'
loop_
 _atom_site_type_symbol
 _atom_site_label
 _atom_site_symmetry_multiplicity
 _atom_site_fract_x
 _atom_site_fract_y
 _atom_site_fract_z
 _atom_site_fract_occupancy
 Cl  Cl1  1  0.69132  0.77612  0.84123  1
 Cl  Cl2  1  0.30868  0.22388  0.15877  1
 Cl  Cl3  1  0.78072  0.25722  0.18134  1
 Cl  Cl4  1  0.21928  0.74278  0.81866  1
 Cl  Cl5  1  0.72385  0.75282  0.31064  1
 Cl  Cl6  1  0.78731  0.24718  0.68936  1
 Cl  Cl7  1  0.27615  0.24718  0.68936  1
 Cl  Cl8  1  0.21269  0.75282  0.31064  1
 Nb  Nb1  1  0.22018  0.00000  -0.00000  1
 Nb  Nb2  1  0.77982  -0.00000  0.00000  1
