CIF file written using JARVIS-Tools package.
data_UPt
_symmetry_space_group_name_H-M  'Cmcm'
_cell_length_a       4.04757
_cell_length_b       4.22344
_cell_length_c       5.58004
_cell_angle_alpha    90
_cell_angle_beta     111.265
_cell_angle_gamma    90

_symmetry_Int_Tables_number  63
_chemical_formula_structural  UPt
_chemical_formula_sum  U2Pt2
_cell_volume  88.89419055313466
_cell_formula_units_Z  2
loop_
  _symmetry_equiv_pos_site_id
 _symmetry_equiv_pos_as_xyz
 1  'x, y, z'
loop_
 _atom_site_type_symbol
 _atom_site_label
 _atom_site_symmetry_multiplicity
 _atom_site_fract_x
 _atom_site_fract_y
 _atom_site_fract_z
 _atom_site_fract_occupancy
 Pt  Pt1  1  0.60239  0.25000  0.20479  1
 Pt  Pt2  1  0.39761  0.75000  0.79521  1
 U  U1  1  0.12944  0.75000  0.25889  1
 U  U2  1  0.87056  0.25000  0.74111  1
