CIF file written using JARVIS-Tools package.
data_LiSmCu2P2
_symmetry_space_group_name_H-M  'P-3m1'
_cell_length_a       4.02294
_cell_length_b       4.02294
_cell_length_c       6.71878
_cell_angle_alpha    90
_cell_angle_beta     90
_cell_angle_gamma    120

_symmetry_Int_Tables_number  164
_chemical_formula_structural  LiSmCu2P2
_chemical_formula_sum  LiSmCu2P2
_cell_volume  94.16918754696023
_cell_formula_units_Z  1
loop_
  _symmetry_equiv_pos_site_id
 _symmetry_equiv_pos_as_xyz
 1  'x, y, z'
loop_
 _atom_site_type_symbol
 _atom_site_label
 _atom_site_symmetry_multiplicity
 _atom_site_fract_x
 _atom_site_fract_y
 _atom_site_fract_z
 _atom_site_fract_occupancy
 Cu  Cu1  1  0.66667  0.33333  0.66889  1
 Cu  Cu2  1  0.33333  0.66667  0.33111  1
 Li  Li1  1  0.00000  0.00000  0.50000  1
 P  P1  1  0.66667  0.33333  0.26570  1
 P  P2  1  0.33333  0.66667  0.73430  1
 Sm  Sm1  1  0.00000  0.00000  0.00000  1
