CIF file written using JARVIS-Tools package.
data_TmGe2
_symmetry_space_group_name_H-M  'Cmcm'
_cell_length_a       3.89628
_cell_length_b       4.02243
_cell_length_c       8.174
_cell_angle_alpha    104.244
_cell_angle_beta     90
_cell_angle_gamma    90

_symmetry_Int_Tables_number  63
_chemical_formula_structural  TmGe2
_chemical_formula_sum  Tm2Ge4
_cell_volume  124.16863623151984
_cell_formula_units_Z  2
loop_
  _symmetry_equiv_pos_site_id
 _symmetry_equiv_pos_as_xyz
 1  'x, y, z'
loop_
 _atom_site_type_symbol
 _atom_site_label
 _atom_site_symmetry_multiplicity
 _atom_site_fract_x
 _atom_site_fract_y
 _atom_site_fract_z
 _atom_site_fract_occupancy
 Ge  Ge1  1  0.25000  0.55376  0.10752  1
 Ge  Ge2  1  0.75000  0.44624  0.89248  1
 Ge  Ge3  1  0.75000  0.74694  0.49388  1
 Ge  Ge4  1  0.25000  0.25306  0.50612  1
 Tm  Tm1  1  0.25000  0.89624  0.79249  1
 Tm  Tm2  1  0.75000  0.10376  0.20751  1
