CIF file written using JARVIS-Tools package.
data_SrNiF6
_symmetry_space_group_name_H-M  'R-3m'
_cell_length_a       4.68964
_cell_length_b       4.68964
_cell_length_c       4.68964
_cell_angle_alpha    99.253
_cell_angle_beta     99.253
_cell_angle_gamma    99.253

_symmetry_Int_Tables_number  166
_chemical_formula_structural  SrNiF6
_chemical_formula_sum  SrNiF6
_cell_volume  98.60999596936621
_cell_formula_units_Z  1
loop_
  _symmetry_equiv_pos_site_id
 _symmetry_equiv_pos_as_xyz
 1  'x, y, z'
loop_
 _atom_site_type_symbol
 _atom_site_label
 _atom_site_symmetry_multiplicity
 _atom_site_fract_x
 _atom_site_fract_y
 _atom_site_fract_z
 _atom_site_fract_occupancy
 F  F1  1  0.72063  0.72063  0.06853  1
 F  F2  1  0.72063  0.06853  0.72063  1
 F  F3  1  0.27937  0.93147  0.27937  1
 F  F4  1  0.27937  0.27937  0.93147  1
 F  F5  1  0.93147  0.27937  0.27937  1
 F  F6  1  0.06853  0.72063  0.72063  1
 Ni  Ni1  1  0.00000  0.00000  0.00000  1
 Sr  Sr1  1  0.50000  0.50000  0.50000  1
