CIF file written using JARVIS-Tools package.
data_SmBS3
_symmetry_space_group_name_H-M  'Pna2_1'
_cell_length_a       6.04084
_cell_length_b       7.37752
_cell_length_c       8.8505
_cell_angle_alpha    90
_cell_angle_beta     90
_cell_angle_gamma    90

_symmetry_Int_Tables_number  33
_chemical_formula_structural  SmBS3
_chemical_formula_sum  Sm4B4S2
_cell_volume  394.4351819832086
_cell_formula_units_Z  4
loop_
  _symmetry_equiv_pos_site_id
 _symmetry_equiv_pos_as_xyz
 1  'x, y, z'
loop_
 _atom_site_type_symbol
 _atom_site_label
 _atom_site_symmetry_multiplicity
 _atom_site_fract_x
 _atom_site_fract_y
 _atom_site_fract_z
 _atom_site_fract_occupancy
 B  B1  1  0.59941  0.64390  0.92816  1
 B  B2  1  0.40059  0.35610  0.42816  1
 B  B3  1  0.90059  0.14390  0.92816  1
 B  B4  1  0.09941  0.85610  0.42816  1
 S  S1  1  0.39010  0.50439  0.26622  1
 S  S2  1  0.33454  0.82484  0.55497  1
 S  S3  1  0.63579  0.20501  0.45841  1
 S  S4  1  0.13579  0.29499  0.95841  1
 S  S5  1  0.86421  0.70501  0.45841  1
 S  S6  1  0.36421  0.79499  0.95841  1
 S  S7  1  0.10990  0.00439  0.26622  1
 S  S8  1  0.83454  0.67516  0.05497  1
 S  S9  1  0.60990  0.49561  0.76622  1
 S  S10  1  0.16546  0.32484  0.55497  1
 S  S11  1  0.66546  0.17516  0.05497  1
 S  S12  1  0.89010  0.99561  0.76622  1
 Sm  Sm1  1  0.93593  0.38379  0.25834  1
 Sm  Sm2  1  0.56407  0.88379  0.25834  1
 Sm  Sm3  1  0.43593  0.11621  0.75834  1
 Sm  Sm4  1  0.06407  0.61621  0.75834  1
