CIF file written using JARVIS-Tools package.
data_MnB4
_symmetry_space_group_name_H-M  'Immm'
_cell_length_a       2.95374
_cell_length_b       3.848
_cell_length_c       3.84799
_cell_angle_alpha    88.4009
_cell_angle_beta     67.4298
_cell_angle_gamma    67.4298

_symmetry_Int_Tables_number  71
_chemical_formula_structural  MnB4
_chemical_formula_sum  MnB4
_cell_volume  36.92571267313105
_cell_formula_units_Z  1
loop_
  _symmetry_equiv_pos_site_id
 _symmetry_equiv_pos_as_xyz
 1  'x, y, z'
loop_
 _atom_site_type_symbol
 _atom_site_label
 _atom_site_symmetry_multiplicity
 _atom_site_fract_x
 _atom_site_fract_y
 _atom_site_fract_z
 _atom_site_fract_occupancy
 B  B1  1  0.79726  0.86203  0.54344  1
 B  B2  1  0.20274  0.45656  0.13797  1
 B  B3  1  0.20274  0.13797  0.45656  1
 B  B4  1  0.79726  0.54344  0.86203  1
 Mn  Mn1  1  0.00000  0.00000  0.00000  1
