CIF file written using JARVIS-Tools package.
data_USeS
_symmetry_space_group_name_H-M  'Pnma'
_cell_length_a       4.03384
_cell_length_b       7.27432
_cell_length_c       8.59953
_cell_angle_alpha    90
_cell_angle_beta     90
_cell_angle_gamma    90

_symmetry_Int_Tables_number  62
_chemical_formula_structural  USeS
_chemical_formula_sum  U4Se4S4
_cell_volume  252.33941135431238
_cell_formula_units_Z  4
loop_
  _symmetry_equiv_pos_site_id
 _symmetry_equiv_pos_as_xyz
 1  'x, y, z'
loop_
 _atom_site_type_symbol
 _atom_site_label
 _atom_site_symmetry_multiplicity
 _atom_site_fract_x
 _atom_site_fract_y
 _atom_site_fract_z
 _atom_site_fract_occupancy
 S  S1  1  0.25000  0.35603  0.56850  1
 S  S2  1  0.75000  0.64397  0.43150  1
 S  S3  1  0.25000  0.85603  0.93150  1
 S  S4  1  0.75000  0.14397  0.06850  1
 Se  Se1  1  0.75000  0.52916  0.83593  1
 Se  Se2  1  0.25000  0.47084  0.16407  1
 Se  Se3  1  0.75000  0.02916  0.66407  1
 Se  Se4  1  0.25000  0.97084  0.33593  1
 U  U1  1  0.25000  0.72819  0.63104  1
 U  U2  1  0.75000  0.27181  0.36896  1
 U  U3  1  0.25000  0.22819  0.86896  1
 U  U4  1  0.75000  0.77181  0.13104  1
