CIF file written using JARVIS-Tools package.
data_TbGa
_symmetry_space_group_name_H-M  'Cmcm'
_cell_length_a       4.05627
_cell_length_b       4.3398
_cell_length_c       5.84904
_cell_angle_alpha    111.776
_cell_angle_beta     90
_cell_angle_gamma    90

_symmetry_Int_Tables_number  63
_chemical_formula_structural  TbGa
_chemical_formula_sum  Tb2Ga2
_cell_volume  95.61568959229335
_cell_formula_units_Z  2
loop_
  _symmetry_equiv_pos_site_id
 _symmetry_equiv_pos_as_xyz
 1  'x, y, z'
loop_
 _atom_site_type_symbol
 _atom_site_label
 _atom_site_symmetry_multiplicity
 _atom_site_fract_x
 _atom_site_fract_y
 _atom_site_fract_z
 _atom_site_fract_occupancy
 Ga  Ga1  1  0.75000  0.42298  0.84596  1
 Ga  Ga2  1  0.25000  0.57702  0.15404  1
 Tb  Tb1  1  0.75000  0.13941  0.27883  1
 Tb  Tb2  1  0.25000  0.86059  0.72117  1
