CIF file written using JARVIS-Tools package.
data_Pr2Co12P7
_symmetry_space_group_name_H-M  'P-6'
_cell_length_a       9.12692
_cell_length_b       3.65172
_cell_length_c       9.12698
_cell_angle_alpha    90
_cell_angle_beta     120
_cell_angle_gamma    90

_symmetry_Int_Tables_number  174
_chemical_formula_structural  Pr2Co12P7
_chemical_formula_sum  Pr2Co2P7
_cell_volume  263.4393832268879
_cell_formula_units_Z  1
loop_
  _symmetry_equiv_pos_site_id
 _symmetry_equiv_pos_as_xyz
 1  'x, y, z'
loop_
 _atom_site_type_symbol
 _atom_site_label
 _atom_site_symmetry_multiplicity
 _atom_site_fract_x
 _atom_site_fract_y
 _atom_site_fract_z
 _atom_site_fract_occupancy
 Co  Co1  1  0.56800  0.00000  0.94168  1
 Co  Co2  1  0.76999  0.50000  0.89754  1
 Co  Co3  1  0.12754  0.50000  0.23000  1
 Co  Co4  1  0.10247  0.50000  0.87246  1
 Co  Co5  1  0.88062  0.00000  0.15027  1
 Co  Co6  1  0.26964  0.00000  0.11937  1
 Co  Co7  1  0.84973  0.00000  0.73036  1
 Co  Co8  1  0.94915  0.50000  0.38051  1
 Co  Co9  1  0.43137  0.50000  0.05086  1
 Co  Co10  1  0.37368  0.00000  0.43199  1
 Co  Co11  1  0.05832  0.00000  0.62632  1
 Co  Co12  1  0.61949  0.50000  0.56864  1
 P  P1  1  -0.00001  0.00000  -0.00000  1
 P  P2  1  0.89640  0.50000  0.60414  1
 P  P3  1  0.70775  0.50000  0.10361  1
 P  P4  1  0.59908  0.00000  0.70548  1
 P  P5  1  0.10641  0.00000  0.40091  1
 P  P6  1  0.29451  0.00000  0.89360  1
 P  P7  1  0.39586  0.50000  0.29225  1
 Pr  Pr1  1  0.33333  0.50000  0.66667  1
 Pr  Pr2  1  0.66667  0.00000  0.33334  1
