CIF file written using JARVIS-Tools package.
data_TiI4
_symmetry_space_group_name_H-M  'C2/c'
_cell_length_a       6.8994
_cell_length_b       7.79646
_cell_length_c       7.79646
_cell_angle_alpha    63.0838
_cell_angle_beta     89.5147
_cell_angle_gamma    89.5149

_symmetry_Int_Tables_number  15
_chemical_formula_structural  TiI4
_chemical_formula_sum  Ti2I8
_cell_volume  373.9285748151225
_cell_formula_units_Z  2
loop_
  _symmetry_equiv_pos_site_id
 _symmetry_equiv_pos_as_xyz
 1  'x, y, z'
loop_
 _atom_site_type_symbol
 _atom_site_label
 _atom_site_symmetry_multiplicity
 _atom_site_fract_x
 _atom_site_fract_y
 _atom_site_fract_z
 _atom_site_fract_occupancy
 I  I1  1  0.92510  0.49645  0.27073  1
 I  I2  1  0.57490  0.72927  0.50355  1
 I  I3  1  0.07490  0.50355  0.72927  1
 I  I4  1  0.42510  0.27073  0.49645  1
 I  I5  1  0.59970  0.25825  0.99457  1
 I  I6  1  0.90030  0.00543  0.74175  1
 I  I7  1  0.40030  0.74175  0.00543  1
 I  I8  1  0.09970  0.99457  0.25825  1
 Ti  Ti1  1  0.75000  0.33858  0.66142  1
 Ti  Ti2  1  0.25000  0.66142  0.33858  1
