CIF file written using JARVIS-Tools package.
data_HfInRh2
_symmetry_space_group_name_H-M  'I4/mmm'
_cell_length_a       4.69959
_cell_length_b       4.69962
_cell_length_c       4.36878
_cell_angle_alpha    62.3041
_cell_angle_beta     62.3034
_cell_angle_gamma    55.394

_symmetry_Int_Tables_number  139
_chemical_formula_structural  HfInRh2
_chemical_formula_sum  HfInRh2
_cell_volume  67.59697322740516
_cell_formula_units_Z  1
loop_
  _symmetry_equiv_pos_site_id
 _symmetry_equiv_pos_as_xyz
 1  'x, y, z'
loop_
 _atom_site_type_symbol
 _atom_site_label
 _atom_site_symmetry_multiplicity
 _atom_site_fract_x
 _atom_site_fract_y
 _atom_site_fract_z
 _atom_site_fract_occupancy
 Hf  Hf1  1  0.25000  0.25000  0.25000  1
 In  In1  1  0.75000  0.75000  0.75000  1
 Rh  Rh1  1  -0.00000  -0.00001  0.00002  1
 Rh  Rh2  1  0.50000  0.50001  0.49998  1
