CIF file written using JARVIS-Tools package.
data_Ti5Se4
_symmetry_space_group_name_H-M  'I4/m'
_cell_length_a       3.49912
_cell_length_b       7.0788
_cell_length_c       7.0788
_cell_angle_alpha    86.4978
_cell_angle_beta     75.6908
_cell_angle_gamma    75.6907

_symmetry_Int_Tables_number  87
_chemical_formula_structural  Ti5Se4
_chemical_formula_sum  Ti5Se4
_cell_volume  164.6281129910977
_cell_formula_units_Z  1
loop_
  _symmetry_equiv_pos_site_id
 _symmetry_equiv_pos_as_xyz
 1  'x, y, z'
loop_
 _atom_site_type_symbol
 _atom_site_label
 _atom_site_symmetry_multiplicity
 _atom_site_fract_x
 _atom_site_fract_y
 _atom_site_fract_z
 _atom_site_fract_occupancy
 Se  Se1  1  0.05739  0.21554  0.66967  1
 Se  Se2  1  0.72706  0.33033  0.21554  1
 Se  Se3  1  0.27294  0.66967  0.78446  1
 Se  Se4  1  0.94261  0.78446  0.33033  1
 Ti  Ti1  1  0.00000  0.00000  0.00000  1
 Ti  Ti2  1  0.30677  0.06522  0.32124  1
 Ti  Ti3  1  0.62801  0.67876  0.06522  1
 Ti  Ti4  1  0.37199  0.32124  0.93478  1
 Ti  Ti5  1  0.69323  0.93478  0.67876  1
