CIF file written using JARVIS-Tools package.
data_Sr
_symmetry_space_group_name_H-M  'P6/mmm'
_cell_length_a       3.7147
_cell_length_b       4.01234
_cell_length_c       6.94777
_cell_angle_alpha    89.9982
_cell_angle_beta     89.9825
_cell_angle_gamma    90.036

_symmetry_Int_Tables_number  191
_chemical_formula_structural  Sr
_chemical_formula_sum  Sr2
_cell_volume  103.55428932832875
_cell_formula_units_Z  2
loop_
  _symmetry_equiv_pos_site_id
 _symmetry_equiv_pos_as_xyz
 1  'x, y, z'
loop_
 _atom_site_type_symbol
 _atom_site_label
 _atom_site_symmetry_multiplicity
 _atom_site_fract_x
 _atom_site_fract_y
 _atom_site_fract_z
 _atom_site_fract_occupancy
 Sr  Sr1  1  0.99998  0.99984  -0.00000  1
 Sr  Sr2  1  0.00002  0.50016  0.50000  1
