CIF file written using JARVIS-Tools package.
data_YMgPd
_symmetry_space_group_name_H-M  'P-62m'
_cell_length_a       7.45344
_cell_length_b       7.45344
_cell_length_c       4.04207
_cell_angle_alpha    90
_cell_angle_beta     90
_cell_angle_gamma    120

_symmetry_Int_Tables_number  189
_chemical_formula_structural  YMgPd
_chemical_formula_sum  Y3Mg3Pd3
_cell_volume  194.46777101256785
_cell_formula_units_Z  3
loop_
  _symmetry_equiv_pos_site_id
 _symmetry_equiv_pos_as_xyz
 1  'x, y, z'
loop_
 _atom_site_type_symbol
 _atom_site_label
 _atom_site_symmetry_multiplicity
 _atom_site_fract_x
 _atom_site_fract_y
 _atom_site_fract_z
 _atom_site_fract_occupancy
 Mg  Mg1  1  0.75498  0.00000  0.00000  1
 Mg  Mg2  1  0.24502  0.24502  0.00000  1
 Mg  Mg3  1  0.00000  0.75498  0.00000  1
 Pd  Pd1  1  0.66667  0.33333  0.00000  1
 Pd  Pd2  1  0.33333  0.66667  0.00000  1
 Pd  Pd3  1  0.00000  0.00000  0.50000  1
 Y  Y1  1  0.41216  -0.00000  0.50000  1
 Y  Y2  1  -0.00000  0.41216  0.50000  1
 Y  Y3  1  0.58784  0.58784  0.50000  1
