CIF file written using JARVIS-Tools package.
data_KCu2Se2
_symmetry_space_group_name_H-M  'I4/mmm'
_cell_length_a       3.97272
_cell_length_b       3.97273
_cell_length_c       7.36233
_cell_angle_alpha    105.656
_cell_angle_beta     105.656
_cell_angle_gamma    90.001

_symmetry_Int_Tables_number  139
_chemical_formula_structural  KCu2Se2
_chemical_formula_sum  KCu2Se2
_cell_volume  107.40184459048605
_cell_formula_units_Z  1
loop_
  _symmetry_equiv_pos_site_id
 _symmetry_equiv_pos_as_xyz
 1  'x, y, z'
loop_
 _atom_site_type_symbol
 _atom_site_label
 _atom_site_symmetry_multiplicity
 _atom_site_fract_x
 _atom_site_fract_y
 _atom_site_fract_z
 _atom_site_fract_occupancy
 Cu  Cu1  1  0.74998  0.25002  0.50000  1
 Cu  Cu2  1  0.25002  0.74998  0.50000  1
 K  K1  1  0.50000  0.50000  -0.00000  1
 Se  Se1  1  0.14077  0.14077  0.28160  1
 Se  Se2  1  0.85923  0.85923  0.71840  1
