CIF file written using JARVIS-Tools package.
data_Al2SiO4F2
_symmetry_space_group_name_H-M  'Pnma'
_cell_length_a       4.6915
_cell_length_b       8.46722
_cell_length_c       8.87816
_cell_angle_alpha    90
_cell_angle_beta     90
_cell_angle_gamma    90

_symmetry_Int_Tables_number  62
_chemical_formula_structural  Al2SiO4F2
_chemical_formula_sum  Al8Si4O6F8
_cell_volume  352.6753755866609
_cell_formula_units_Z  4
loop_
  _symmetry_equiv_pos_site_id
 _symmetry_equiv_pos_as_xyz
 1  'x, y, z'
loop_
 _atom_site_type_symbol
 _atom_site_label
 _atom_site_symmetry_multiplicity
 _atom_site_fract_x
 _atom_site_fract_y
 _atom_site_fract_z
 _atom_site_fract_occupancy
 Al  Al1  1  0.09683  0.91695  0.13034  1
 Al  Al2  1  0.59683  0.08305  0.36966  1
 Al  Al3  1  0.90317  0.41695  0.86966  1
 Al  Al4  1  0.40317  0.58305  0.63034  1
 Al  Al5  1  0.59683  0.41695  0.36966  1
 Al  Al6  1  0.09683  0.58305  0.13034  1
 Al  Al7  1  0.40317  0.91695  0.63034  1
 Al  Al8  1  0.90317  0.08305  0.86966  1
 F  F1  1  0.90396  0.05767  0.24784  1
 F  F2  1  0.40396  0.55767  0.25216  1
 F  F3  1  0.59604  0.44233  0.74784  1
 F  F4  1  0.59604  0.05767  0.74784  1
 F  F5  1  0.09604  0.94233  0.75216  1
 F  F6  1  0.09604  0.55767  0.75216  1
 F  F7  1  0.40396  0.94233  0.25216  1
 F  F8  1  0.90396  0.44233  0.24784  1
 O  O1  1  0.78920  0.90806  0.98926  1
 O  O2  1  0.29513  0.75000  0.03137  1
 O  O3  1  0.79513  0.25000  0.46863  1
 O  O4  1  0.54198  0.75000  0.75541  1
 O  O5  1  0.45802  0.25000  0.24459  1
 O  O6  1  0.20487  0.75000  0.53137  1
 O  O7  1  0.71080  0.90806  0.48926  1
 O  O8  1  0.78920  0.59194  0.98926  1
 O  O9  1  0.95802  0.75000  0.25541  1
 O  O10  1  0.04198  0.25000  0.74459  1
 O  O11  1  0.28920  0.40806  0.51074  1
 O  O12  1  0.71080  0.59194  0.48926  1
 O  O13  1  0.21080  0.40806  0.01074  1
 O  O14  1  0.70487  0.25000  0.96863  1
 O  O15  1  0.21080  0.09194  0.01074  1
 O  O16  1  0.28920  0.09194  0.51074  1
 Si  Si1  1  0.60231  0.75000  0.93993  1
 Si  Si2  1  0.10231  0.25000  0.56007  1
 Si  Si3  1  0.39769  0.25000  0.06007  1
 Si  Si4  1  0.89769  0.75000  0.43993  1
