data_image0
_chemical_formula_structural       CFH6N
_chemical_formula_sum              "C1 F1 H6 N1"
_cell_length_a       4.27998
_cell_length_b       4.27993
_cell_length_c       4.9819
_cell_angle_alpha    89.9998
_cell_angle_beta     115.439
_cell_angle_gamma    120

_space_group_name_H-M_alt    "P 1"
_space_group_IT_number       1

loop_
  _space_group_symop_operation_xyz
  'x, y, z'

loop_
  _atom_site_type_symbol
  _atom_site_label
  _atom_site_symmetry_multiplicity
  _atom_site_fract_x
  _atom_site_fract_y
  _atom_site_fract_z
  _atom_site_occupancy
  C   C1        1.0  0.99200  0.49600  0.48700  1.0000
  F   F1        1.0  0.97200  0.98600  0.95700  1.0000
  H   H1        1.0  0.84300  0.22000  0.06330  1.0000
  H   H2        1.0  0.84300  0.62200  0.06330  1.0000
  H   H3        1.0  0.44100  0.22000  0.06330  1.0000
  H   H4        1.0  0.32700  0.66400  0.57400  1.0000
  H   H5        1.0  0.91100  0.24700  0.57400  1.0000
  H   H6        1.0  0.91100  0.66400  0.57400  1.0000
  N   N1        1.0  0.76500  0.38200  0.14700  1.0000
