CIF file written using JARVIS-Tools package.
data_SmMn2Si2
_symmetry_space_group_name_H-M  'I4/mmm'
_cell_length_a       3.9444
_cell_length_b       3.94439
_cell_length_c       5.91191
_cell_angle_alpha    109.487
_cell_angle_beta     109.487
_cell_angle_gamma    90

_symmetry_Int_Tables_number  139
_chemical_formula_structural  SmMn2Si2
_chemical_formula_sum  SmMn2Si2
_cell_volume  81.09946138465637
_cell_formula_units_Z  1
loop_
  _symmetry_equiv_pos_site_id
 _symmetry_equiv_pos_as_xyz
 1  'x, y, z'
loop_
 _atom_site_type_symbol
 _atom_site_label
 _atom_site_symmetry_multiplicity
 _atom_site_fract_x
 _atom_site_fract_y
 _atom_site_fract_z
 _atom_site_fract_occupancy
 Mn  Mn1  1  0.75000  0.25000  0.50000  1
 Mn  Mn2  1  0.25000  0.75000  0.50000  1
 Si  Si1  1  0.62338  0.62338  0.24676  1
 Si  Si2  1  0.37662  0.37662  0.75324  1
 Sm  Sm1  1  0.00000  0.00000  0.00000  1
