CIF file written using JARVIS-Tools package.
data_S
_symmetry_space_group_name_H-M  'R-3'
_cell_length_a       6.35828
_cell_length_b       6.35827
_cell_length_c       6.35828
_cell_angle_alpha    115.26
_cell_angle_beta     115.26
_cell_angle_gamma    115.26

_symmetry_Int_Tables_number  148
_chemical_formula_structural  S
_chemical_formula_sum  S6
_cell_volume  140.3960000072651
_cell_formula_units_Z  6
loop_
  _symmetry_equiv_pos_site_id
 _symmetry_equiv_pos_as_xyz
 1  'x, y, z'
loop_
 _atom_site_type_symbol
 _atom_site_label
 _atom_site_symmetry_multiplicity
 _atom_site_fract_x
 _atom_site_fract_y
 _atom_site_fract_z
 _atom_site_fract_occupancy
 S  S1  1  0.25721  0.14909  0.91454  1
 S  S2  1  0.91454  0.25721  0.14909  1
 S  S3  1  0.14909  0.91454  0.25721  1
 S  S4  1  0.74279  0.85091  0.08546  1
 S  S5  1  0.08546  0.74279  0.85091  1
 S  S6  1  0.85091  0.08546  0.74279  1
