CIF file written using JARVIS-Tools package.
data_Te2Mo2SeS
_symmetry_space_group_name_H-M  'P3m1'
_cell_length_a       3.40622
_cell_length_b       3.40623
_cell_length_c       37.2204
_cell_angle_alpha    89.9986
_cell_angle_beta     90
_cell_angle_gamma    120

_symmetry_Int_Tables_number  156
_chemical_formula_structural  Te2Mo2SeS
_chemical_formula_sum  Te4Mo4Se2S2
_cell_volume  373.98754644731736
_cell_formula_units_Z  2
loop_
  _symmetry_equiv_pos_site_id
 _symmetry_equiv_pos_as_xyz
 1  'x, y, z'
loop_
 _atom_site_type_symbol
 _atom_site_label
 _atom_site_symmetry_multiplicity
 _atom_site_fract_x
 _atom_site_fract_y
 _atom_site_fract_z
 _atom_site_fract_occupancy
 Mo  Mo1  1  0.33339  0.66678  0.09720  1
 Mo  Mo2  1  0.33330  0.66661  0.47229  1
 Mo  Mo3  1  0.66667  0.33334  0.27596  1
 Mo  Mo4  1  0.66664  0.33327  0.65750  1
 S  S1  1  0.66673  0.33347  0.05689  1
 S  S2  1  0.66672  0.33344  0.13756  1
 Se  Se1  1  0.33329  0.66659  0.70171  1
 Se  Se2  1  0.33331  0.66661  0.61321  1
 Te  Te1  1  0.33332  0.66664  0.32636  1
 Te  Te2  1  0.66665  0.33330  0.42188  1
 Te  Te3  1  0.66663  0.33326  0.52266  1
 Te  Te4  1  0.33334  0.66669  0.22551  1
