CIF file written using JARVIS-Tools package.
data_HfFeP
_symmetry_space_group_name_H-M  'Pnma'
_cell_length_a       3.73835
_cell_length_b       6.24988
_cell_length_c       7.03561
_cell_angle_alpha    90
_cell_angle_beta     90
_cell_angle_gamma    90

_symmetry_Int_Tables_number  62
_chemical_formula_structural  HfFeP
_chemical_formula_sum  Hf4Fe4P4
_cell_volume  164.38171720348046
_cell_formula_units_Z  4
loop_
  _symmetry_equiv_pos_site_id
 _symmetry_equiv_pos_as_xyz
 1  'x, y, z'
loop_
 _atom_site_type_symbol
 _atom_site_label
 _atom_site_symmetry_multiplicity
 _atom_site_fract_x
 _atom_site_fract_y
 _atom_site_fract_z
 _atom_site_fract_occupancy
 Fe  Fe1  1  0.75000  0.85180  0.56274  1
 Fe  Fe2  1  0.25000  0.14820  0.43726  1
 Fe  Fe3  1  0.75000  0.35180  0.93726  1
 Fe  Fe4  1  0.25000  0.64820  0.06274  1
 Hf  Hf1  1  0.25000  0.51678  0.68523  1
 Hf  Hf2  1  0.75000  0.48322  0.31477  1
 Hf  Hf3  1  0.25000  0.01678  0.81477  1
 Hf  Hf4  1  0.75000  0.98322  0.18523  1
 P  P1  1  0.25000  0.28002  0.11432  1
 P  P2  1  0.75000  0.71998  0.88568  1
 P  P3  1  0.25000  0.78002  0.38568  1
 P  P4  1  0.75000  0.21998  0.61432  1
