CIF file written using JARVIS-Tools package.
data_SrReN3
_symmetry_space_group_name_H-M  'C2/c'
_cell_length_a       6.196
_cell_length_b       7.57042
_cell_length_c       7.57042
_cell_angle_alpha    93.3206
_cell_angle_beta     101.589
_cell_angle_gamma    78.4106

_symmetry_Int_Tables_number  15
_chemical_formula_structural  SrReN3
_chemical_formula_sum  Sr4Re4N2
_cell_volume  340.7115046420179
_cell_formula_units_Z  4
loop_
  _symmetry_equiv_pos_site_id
 _symmetry_equiv_pos_as_xyz
 1  'x, y, z'
loop_
 _atom_site_type_symbol
 _atom_site_label
 _atom_site_symmetry_multiplicity
 _atom_site_fract_x
 _atom_site_fract_y
 _atom_site_fract_z
 _atom_site_fract_occupancy
 N  N1  1  0.50246  0.32301  0.62913  1
 N  N2  1  0.33527  0.01345  0.76708  1
 N  N3  1  0.16278  0.12753  0.40255  1
 N  N4  1  -0.00246  0.62913  0.32301  1
 N  N5  1  0.83722  0.87247  0.59745  1
 N  N6  1  0.33722  0.40255  0.12753  1
 N  N7  1  0.66473  0.98655  0.23292  1
 N  N8  1  0.83527  0.23292  0.98655  1
 N  N9  1  0.49754  0.67699  0.37087  1
 N  N10  1  0.00246  0.37087  0.67699  1
 N  N11  1  0.16473  0.76708  0.01345  1
 N  N12  1  0.66278  0.59745  0.87247  1
 Re  Re1  1  0.24443  0.62293  0.20268  1
 Re  Re2  1  0.25557  0.20268  0.62293  1
 Re  Re3  1  0.74443  0.79732  0.37707  1
 Re  Re4  1  0.75557  0.37707  0.79732  1
 Sr  Sr1  1  0.25000  0.68048  0.68048  1
 Sr  Sr2  1  0.25000  0.09092  0.09092  1
 Sr  Sr3  1  0.75000  0.90908  0.90908  1
 Sr  Sr4  1  0.75000  0.31952  0.31952  1
