CIF file written using JARVIS-Tools package.
data_Te2Mo3WSe4S2
_symmetry_space_group_name_H-M  'P3m1'
_cell_length_a       3.34812
_cell_length_b       3.34811
_cell_length_c       35.7417
_cell_angle_alpha    90.0106
_cell_angle_beta     90
_cell_angle_gamma    120

_symmetry_Int_Tables_number  156
_chemical_formula_structural  Te2Mo3WSe4S2
_chemical_formula_sum  Te2Mo3WSe4S2
_cell_volume  346.98083460013726
_cell_formula_units_Z  1
loop_
  _symmetry_equiv_pos_site_id
 _symmetry_equiv_pos_as_xyz
 1  'x, y, z'
loop_
 _atom_site_type_symbol
 _atom_site_label
 _atom_site_symmetry_multiplicity
 _atom_site_fract_x
 _atom_site_fract_y
 _atom_site_fract_z
 _atom_site_fract_occupancy
 Mo  Mo1  1  0.33306  0.66612  0.09161  1
 Mo  Mo2  1  0.33348  0.66696  0.47399  1
 Mo  Mo3  1  0.66659  0.33319  0.27928  1
 S  S1  1  0.66634  0.33268  0.04919  1
 S  S2  1  0.66644  0.33288  0.13409  1
 Se  Se1  1  0.33361  0.66721  0.70488  1
 Se  Se2  1  0.66676  0.33353  0.42734  1
 Se  Se3  1  0.66687  0.33373  0.52061  1
 Se  Se4  1  0.33346  0.66692  0.61120  1
 Te  Te1  1  0.33333  0.66666  0.33246  1
 Te  Te2  1  0.33319  0.66638  0.22605  1
 W  W1  1  0.66687  0.33373  0.65806  1
