CIF file written using JARVIS-Tools package.
data_TbGe
_symmetry_space_group_name_H-M  'Cmcm'
_cell_length_a       4.28471
_cell_length_b       5.78943
_cell_length_c       3.9871
_cell_angle_alpha    90
_cell_angle_beta     90
_cell_angle_gamma    111.718

_symmetry_Int_Tables_number  63
_chemical_formula_structural  TbGe
_chemical_formula_sum  Tb2Ge2
_cell_volume  91.88329820141033
_cell_formula_units_Z  2
loop_
  _symmetry_equiv_pos_site_id
 _symmetry_equiv_pos_as_xyz
 1  'x, y, z'
loop_
 _atom_site_type_symbol
 _atom_site_label
 _atom_site_symmetry_multiplicity
 _atom_site_fract_x
 _atom_site_fract_y
 _atom_site_fract_z
 _atom_site_fract_occupancy
 Ge  Ge1  1  0.58695  0.17391  0.25000  1
 Ge  Ge2  1  0.41305  0.82609  0.75000  1
 Tb  Tb1  1  0.13760  0.27520  0.75000  1
 Tb  Tb2  1  0.86240  0.72480  0.25000  1
