CIF file written using JARVIS-Tools package.
data_LiAlH4
_symmetry_space_group_name_H-M  'I4_1/a'
_cell_length_a       6.12974
_cell_length_b       6.12976
_cell_length_c       6.13
_cell_angle_alpha    136.207
_cell_angle_beta     136.191
_cell_angle_gamma    63.6696

_symmetry_Int_Tables_number  88
_chemical_formula_structural  LiAlH4
_chemical_formula_sum  Li2Al2H8
_cell_volume  108.89597760529044
_cell_formula_units_Z  2
loop_
  _symmetry_equiv_pos_site_id
 _symmetry_equiv_pos_as_xyz
 1  'x, y, z'
loop_
 _atom_site_type_symbol
 _atom_site_label
 _atom_site_symmetry_multiplicity
 _atom_site_fract_x
 _atom_site_fract_y
 _atom_site_fract_z
 _atom_site_fract_occupancy
 Al  Al1  1  0.87502  0.62501  0.25000  1
 Al  Al2  1  0.12498  0.37498  0.75000  1
 H  H1  1  0.61759  0.28977  0.81987  1
 H  H2  1  0.96990  0.79772  0.68012  1
 H  H3  1  0.78980  0.47004  0.67232  1
 H  H4  1  0.70228  0.88252  0.17232  1
 H  H5  1  0.03010  0.20228  0.31987  1
 H  H6  1  0.38241  0.71023  0.18013  1
 H  H7  1  0.29772  0.11748  0.82768  1
 H  H8  1  0.21020  0.52996  0.32768  1
 Li  Li1  1  0.62508  0.87508  0.74999  1
 Li  Li2  1  0.37492  0.12492  0.25000  1
