CIF file written using JARVIS-Tools package.
data_DySbPd
_symmetry_space_group_name_H-M  'P6_3mc'
_cell_length_a       4.5919
_cell_length_b       4.5919
_cell_length_c       7.42432
_cell_angle_alpha    90
_cell_angle_beta     90
_cell_angle_gamma    120

_symmetry_Int_Tables_number  186
_chemical_formula_structural  DySbPd
_chemical_formula_sum  Dy2Sb2Pd2
_cell_volume  135.572287400896
_cell_formula_units_Z  2
loop_
  _symmetry_equiv_pos_site_id
 _symmetry_equiv_pos_as_xyz
 1  'x, y, z'
loop_
 _atom_site_type_symbol
 _atom_site_label
 _atom_site_symmetry_multiplicity
 _atom_site_fract_x
 _atom_site_fract_y
 _atom_site_fract_z
 _atom_site_fract_occupancy
 Dy  Dy1  1  0.00000  0.00000  0.49531  1
 Dy  Dy2  1  0.00000  0.00000  0.99531  1
 Pd  Pd1  1  0.66667  0.33333  0.83133  1
 Pd  Pd2  1  0.33333  0.66667  0.33133  1
 Sb  Sb1  1  0.33333  0.66667  0.72238  1
 Sb  Sb2  1  0.66667  0.33333  0.22238  1
