CIF file written using JARVIS-Tools package.
data_SrSi
_symmetry_space_group_name_H-M  'Pnma'
_cell_length_a       4.05503
_cell_length_b       6.12269
_cell_length_c       8.89366
_cell_angle_alpha    90
_cell_angle_beta     90
_cell_angle_gamma    90

_symmetry_Int_Tables_number  62
_chemical_formula_structural  SrSi
_chemical_formula_sum  Sr4Si4
_cell_volume  220.809208200322
_cell_formula_units_Z  4
loop_
  _symmetry_equiv_pos_site_id
 _symmetry_equiv_pos_as_xyz
 1  'x, y, z'
loop_
 _atom_site_type_symbol
 _atom_site_label
 _atom_site_symmetry_multiplicity
 _atom_site_fract_x
 _atom_site_fract_y
 _atom_site_fract_z
 _atom_site_fract_occupancy
 Si  Si1  1  0.25000  0.89007  0.53312  1
 Si  Si2  1  0.75000  0.10993  0.46688  1
 Si  Si3  1  0.75000  0.39007  0.96688  1
 Si  Si4  1  0.25000  0.60993  0.03312  1
 Sr  Sr1  1  0.25000  0.39224  0.68032  1
 Sr  Sr2  1  0.75000  0.60776  0.31968  1
 Sr  Sr3  1  0.75000  0.89224  0.81968  1
 Sr  Sr4  1  0.25000  0.10776  0.18032  1
