CIF file written using JARVIS-Tools package.
data_TiPN3
_symmetry_space_group_name_H-M  'C2/c'
_cell_length_a       4.98805
_cell_length_b       6.40124
_cell_length_c       6.40124
_cell_angle_alpha    94.4576
_cell_angle_beta     98.3869
_cell_angle_gamma    81.613

_symmetry_Int_Tables_number  15
_chemical_formula_structural  TiPN3
_chemical_formula_sum  Ti4P4N2
_cell_volume  199.70877352603313
_cell_formula_units_Z  4
loop_
  _symmetry_equiv_pos_site_id
 _symmetry_equiv_pos_as_xyz
 1  'x, y, z'
loop_
 _atom_site_type_symbol
 _atom_site_label
 _atom_site_symmetry_multiplicity
 _atom_site_fract_x
 _atom_site_fract_y
 _atom_site_fract_z
 _atom_site_fract_occupancy
 N  N1  1  0.36182  0.02622  0.78491  1
 N  N2  1  0.90675  0.57991  0.28984  1
 N  N3  1  0.63818  0.97378  0.21509  1
 N  N4  1  0.86182  0.21509  0.97378  1
 N  N5  1  0.40675  0.71016  0.42009  1
 N  N6  1  0.13818  0.78491  0.02622  1
 N  N7  1  0.13128  0.14598  0.38586  1
 N  N8  1  0.63128  0.61414  0.85402  1
 N  N9  1  0.09325  0.42009  0.71016  1
 N  N10  1  0.59325  0.28984  0.57991  1
 N  N11  1  0.36872  0.38586  0.14598  1
 N  N12  1  0.86872  0.85402  0.61414  1
 P  P1  1  0.29474  0.21356  0.61312  1
 P  P2  1  0.79474  0.38688  0.78644  1
 P  P3  1  0.70526  0.78644  0.38688  1
 P  P4  1  0.20526  0.61312  0.21356  1
 Ti  Ti1  1  0.25000  0.10308  0.10308  1
 Ti  Ti2  1  0.75000  0.28219  0.28219  1
 Ti  Ti3  1  0.75000  0.89692  0.89692  1
 Ti  Ti4  1  0.25000  0.71781  0.71781  1
