CIF file written using JARVIS-Tools package.
data_Y2Be2GeO7
_symmetry_space_group_name_H-M  'P-42_1m'
_cell_length_a       7.44058
_cell_length_b       7.44058
_cell_length_c       4.81367
_cell_angle_alpha    90
_cell_angle_beta     90
_cell_angle_gamma    90

_symmetry_Int_Tables_number  113
_chemical_formula_structural  Y2Be2GeO7
_chemical_formula_sum  Y4Be4Ge2O4
_cell_volume  266.4951647426969
_cell_formula_units_Z  2
loop_
  _symmetry_equiv_pos_site_id
 _symmetry_equiv_pos_as_xyz
 1  'x, y, z'
loop_
 _atom_site_type_symbol
 _atom_site_label
 _atom_site_symmetry_multiplicity
 _atom_site_fract_x
 _atom_site_fract_y
 _atom_site_fract_z
 _atom_site_fract_occupancy
 Be  Be1  1  0.13542  0.36458  0.95146  1
 Be  Be2  1  0.63542  0.13542  0.04854  1
 Be  Be3  1  0.36458  0.86458  0.04854  1
 Be  Be4  1  0.86458  0.63542  0.95146  1
 Ge  Ge1  1  0.00000  0.00000  0.00000  1
 Ge  Ge2  1  0.50000  0.50000  0.00000  1
 O  O1  1  0.58153  0.32807  0.21842  1
 O  O2  1  0.00000  0.50000  0.81330  1
 O  O3  1  0.67193  0.58153  0.78158  1
 O  O4  1  0.14235  0.35765  0.28186  1
 O  O5  1  0.64235  0.14235  0.71814  1
 O  O6  1  0.35765  0.85765  0.71814  1
 O  O7  1  0.50000  0.00000  0.18670  1
 O  O8  1  0.08153  0.17193  0.78158  1
 O  O9  1  0.32807  0.41847  0.78158  1
 O  O10  1  0.17193  0.91847  0.21842  1
 O  O11  1  0.91847  0.82807  0.78158  1
 O  O12  1  0.85765  0.64235  0.28186  1
 O  O13  1  0.41847  0.67193  0.21842  1
 O  O14  1  0.82807  0.08153  0.21842  1
 Y  Y1  1  0.65824  0.84176  0.50471  1
 Y  Y2  1  0.15824  0.65824  0.49529  1
 Y  Y3  1  0.84176  0.34176  0.49529  1
 Y  Y4  1  0.34176  0.15824  0.50471  1
