CIF file written using JARVIS-Tools package.
data_MgPd5
_symmetry_space_group_name_H-M  'R32'
_cell_length_a       4.837
_cell_length_b       4.837
_cell_length_c       5.36223
_cell_angle_alpha    116.809
_cell_angle_beta     63.1906
_cell_angle_gamma    120

_symmetry_Int_Tables_number  155
_chemical_formula_structural  MgPd5
_chemical_formula_sum  MgPd5
_cell_volume  92.75200770874268
_cell_formula_units_Z  1
loop_
  _symmetry_equiv_pos_site_id
 _symmetry_equiv_pos_as_xyz
 1  'x, y, z'
loop_
 _atom_site_type_symbol
 _atom_site_label
 _atom_site_symmetry_multiplicity
 _atom_site_fract_x
 _atom_site_fract_y
 _atom_site_fract_z
 _atom_site_fract_occupancy
 Mg  Mg1  1  0.83333  0.50000  0.50000  1
 Pd  Pd1  1  0.33333  0.66781  -0.00000  1
 Pd  Pd2  1  0.00115  1.00000  0.00000  1
 Pd  Pd3  1  0.50135  0.83198  0.49595  1
 Pd  Pd4  1  0.16532  0.16802  0.50405  1
 Pd  Pd5  1  0.66552  0.33219  -0.00000  1
