CIF file written using JARVIS-Tools package.
data_CaF2
_symmetry_space_group_name_H-M  'Pnma'
_cell_length_a       3.58362
_cell_length_b       5.96409
_cell_length_c       7.02094
_cell_angle_alpha    90
_cell_angle_beta     90
_cell_angle_gamma    90

_symmetry_Int_Tables_number  62
_chemical_formula_structural  CaF2
_chemical_formula_sum  Ca4F8
_cell_volume  150.05885916216386
_cell_formula_units_Z  4
loop_
  _symmetry_equiv_pos_site_id
 _symmetry_equiv_pos_as_xyz
 1  'x, y, z'
loop_
 _atom_site_type_symbol
 _atom_site_label
 _atom_site_symmetry_multiplicity
 _atom_site_fract_x
 _atom_site_fract_y
 _atom_site_fract_z
 _atom_site_fract_occupancy
 Ca  Ca1  1  0.25000  0.74928  0.61122  1
 Ca  Ca2  1  0.75000  0.25072  0.38878  1
 Ca  Ca3  1  0.25000  0.24928  0.88878  1
 Ca  Ca4  1  0.75000  0.75072  0.11122  1
 F  F1  1  0.25000  0.97866  0.33514  1
 F  F2  1  0.75000  0.02134  0.66486  1
 F  F3  1  0.25000  0.47866  0.16486  1
 F  F4  1  0.75000  0.52134  0.83514  1
 F  F5  1  0.75000  0.14290  0.07406  1
 F  F6  1  0.25000  0.85710  0.92594  1
 F  F7  1  0.75000  0.64290  0.42594  1
 F  F8  1  0.25000  0.35710  0.57406  1
