CIF file written using JARVIS-Tools package.
data_TbBa3Ru2O9
_symmetry_space_group_name_H-M  'P6_3/mmc'
_cell_length_a       5.93559
_cell_length_b       5.93559
_cell_length_c       14.5372
_cell_angle_alpha    90
_cell_angle_beta     90
_cell_angle_gamma    120

_symmetry_Int_Tables_number  194
_chemical_formula_structural  TbBa3Ru2O9
_chemical_formula_sum  Tb2Ba6Ru4O8
_cell_volume  443.5459851684258
_cell_formula_units_Z  2
loop_
  _symmetry_equiv_pos_site_id
 _symmetry_equiv_pos_as_xyz
 1  'x, y, z'
loop_
 _atom_site_type_symbol
 _atom_site_label
 _atom_site_symmetry_multiplicity
 _atom_site_fract_x
 _atom_site_fract_y
 _atom_site_fract_z
 _atom_site_fract_occupancy
 Ba  Ba1  1  0.66667  0.33333  0.40466  1
 Ba  Ba2  1  0.00000  0.00000  0.75000  1
 Ba  Ba3  1  0.33333  0.66667  0.59534  1
 Ba  Ba4  1  0.33333  0.66667  0.90466  1
 Ba  Ba5  1  0.66667  0.33333  0.09534  1
 Ba  Ba6  1  0.00000  0.00000  0.25000  1
 O  O1  1  0.01821  0.50910  0.25000  1
 O  O2  1  0.82306  0.17694  0.91114  1
 O  O3  1  0.17694  0.35387  0.41114  1
 O  O4  1  0.64613  0.82306  0.41114  1
 O  O5  1  0.17694  0.35387  0.08886  1
 O  O6  1  0.82306  0.64613  0.91114  1
 O  O7  1  0.98179  0.49090  0.75000  1
 O  O8  1  0.82306  0.17694  0.58886  1
 O  O9  1  0.35387  0.17694  0.91114  1
 O  O10  1  0.17694  0.82306  0.41114  1
 O  O11  1  0.17694  0.82306  0.08886  1
 O  O12  1  0.49090  0.98179  0.25000  1
 O  O13  1  0.82306  0.64613  0.58886  1
 O  O14  1  0.50910  0.01821  0.75000  1
 O  O15  1  0.35387  0.17694  0.58886  1
 O  O16  1  0.49090  0.50910  0.25000  1
 O  O17  1  0.50910  0.49090  0.75000  1
 O  O18  1  0.64613  0.82306  0.08886  1
 Ru  Ru1  1  0.66667  0.33333  0.66481  1
 Ru  Ru2  1  0.33333  0.66667  0.16481  1
 Ru  Ru3  1  0.33333  0.66667  0.33519  1
 Ru  Ru4  1  0.66667  0.33333  0.83519  1
 Tb  Tb1  1  0.00000  0.00000  0.00000  1
 Tb  Tb2  1  0.00000  0.00000  0.50000  1
