CIF file written using JARVIS-Tools package.
data_Ti2Ag
_symmetry_space_group_name_H-M  'I4/mmm'
_cell_length_a       6.40693
_cell_length_b       6.40693
_cell_length_c       6.40693
_cell_angle_alpha    153.77
_cell_angle_beta     153.77
_cell_angle_gamma    37.4334

_symmetry_Int_Tables_number  139
_chemical_formula_structural  Ti2Ag
_chemical_formula_sum  Ti2Ag
_cell_volume  51.29725804993157
_cell_formula_units_Z  1
loop_
  _symmetry_equiv_pos_site_id
 _symmetry_equiv_pos_as_xyz
 1  'x, y, z'
loop_
 _atom_site_type_symbol
 _atom_site_label
 _atom_site_symmetry_multiplicity
 _atom_site_fract_x
 _atom_site_fract_y
 _atom_site_fract_z
 _atom_site_fract_occupancy
 Ag  Ag1  1  0.00000  0.00000  0.00000  1
 Ti  Ti1  1  0.32758  0.32758  0.00000  1
 Ti  Ti2  1  0.67242  0.67242  -0.00000  1
