CIF file written using JARVIS-Tools package.
data_SmH3O3
_symmetry_space_group_name_H-M  'P6_3/m'
_cell_length_a       6.37698
_cell_length_b       6.37698
_cell_length_c       3.66268
_cell_angle_alpha    90
_cell_angle_beta     90
_cell_angle_gamma    120

_symmetry_Int_Tables_number  176
_chemical_formula_structural  SmH3O3
_chemical_formula_sum  Sm2H6O6
_cell_volume  128.991306119527
_cell_formula_units_Z  2
loop_
  _symmetry_equiv_pos_site_id
 _symmetry_equiv_pos_as_xyz
 1  'x, y, z'
loop_
 _atom_site_type_symbol
 _atom_site_label
 _atom_site_symmetry_multiplicity
 _atom_site_fract_x
 _atom_site_fract_y
 _atom_site_fract_z
 _atom_site_fract_occupancy
 H  H1  1  0.86335  0.13638  0.75000  1
 H  H2  1  0.86362  0.72697  0.75000  1
 H  H3  1  0.27303  0.13665  0.75000  1
 H  H4  1  0.13665  0.86362  0.25000  1
 H  H5  1  0.13638  0.27303  0.25000  1
 H  H6  1  0.72697  0.86335  0.25000  1
 O  O1  1  0.91768  0.30925  0.75000  1
 O  O2  1  0.69075  0.60844  0.75000  1
 O  O3  1  0.39156  0.08232  0.75000  1
 O  O4  1  0.08232  0.69075  0.25000  1
 O  O5  1  0.30925  0.39156  0.25000  1
 O  O6  1  0.60844  0.91768  0.25000  1
 Sm  Sm1  1  0.33333  0.66667  0.75000  1
 Sm  Sm2  1  0.66667  0.33333  0.25000  1
