CIF file written using JARVIS-Tools package.
data_Li4Mn3Co2Ni3O16
_symmetry_space_group_name_H-M  'Cm'
_cell_length_a       5.69485
_cell_length_b       5.66315
_cell_length_c       9.16007
_cell_angle_alpha    90.585
_cell_angle_beta     90
_cell_angle_gamma    120.185

_symmetry_Int_Tables_number  8
_chemical_formula_structural  Li4Mn3Co2Ni3O16
_chemical_formula_sum  Li4Mn3Co2Ni3O6
_cell_volume  255.3447682607188
_cell_formula_units_Z  1
loop_
  _symmetry_equiv_pos_site_id
 _symmetry_equiv_pos_as_xyz
 1  'x, y, z'
loop_
 _atom_site_type_symbol
 _atom_site_label
 _atom_site_symmetry_multiplicity
 _atom_site_fract_x
 _atom_site_fract_y
 _atom_site_fract_z
 _atom_site_fract_occupancy
 Co  Co1  1  0.66557  0.33117  0.48719  1
 Co  Co2  1  0.33671  0.67344  0.98307  1
 Li  Li1  1  0.66995  0.33992  0.89611  1
 Li  Li2  1  0.99880  0.99762  0.99503  1
 Li  Li3  1  0.99522  0.99047  0.49718  1
 Li  Li4  1  0.33273  0.66548  0.39840  1
 Mn  Mn1  1  0.33909  0.16972  0.21351  1
 Mn  Mn2  1  0.83061  0.16973  0.21351  1
 Mn  Mn3  1  0.16921  0.33844  0.71325  1
 Ni  Ni1  1  0.16975  0.82915  0.71262  1
 Ni  Ni2  1  0.65938  0.82915  0.71262  1
 Ni  Ni3  1  0.83064  0.66130  0.21235  1
 O  O1  1  0.83879  0.16838  0.59765  1
 O  O2  1  0.32958  0.16838  0.59765  1
 O  O3  1  0.48155  0.96311  0.84592  1
 O  O4  1  0.66681  0.33364  0.10716  1
 O  O5  1  -0.00051  -0.00099  0.30811  1
 O  O6  1  -0.00163  -0.00324  0.80584  1
 O  O7  1  0.51817  0.03637  0.33907  1
 O  O8  1  0.17596  0.84618  0.09515  1
 O  O9  1  0.83191  0.66385  0.59358  1
 O  O10  1  0.04196  0.51843  0.84262  1
 O  O11  1  0.47645  0.51844  0.84262  1
 O  O12  1  0.33287  0.66576  0.60872  1
 O  O13  1  0.51449  0.47233  0.34580  1
 O  O14  1  0.16762  0.33526  0.10215  1
 O  O15  1  0.95782  0.47233  0.34580  1
 O  O16  1  0.67019  0.84618  0.09515  1
