CIF file written using JARVIS-Tools package.
data_Li4Nb3Fe3Sb2O16
_symmetry_space_group_name_H-M  'P1'
_cell_length_a       6.06807
_cell_length_b       5.92164
_cell_length_c       10.405
_cell_angle_alpha    90.6267
_cell_angle_beta     90.1816
_cell_angle_gamma    118.105

_symmetry_Int_Tables_number  1
_chemical_formula_structural  Li4Nb3Fe3Sb2O16
_chemical_formula_sum  Li4Nb3Fe3Sb2O6
_cell_volume  329.7598506111695
_cell_formula_units_Z  1
loop_
  _symmetry_equiv_pos_site_id
 _symmetry_equiv_pos_as_xyz
 1  'x, y, z'
loop_
 _atom_site_type_symbol
 _atom_site_label
 _atom_site_symmetry_multiplicity
 _atom_site_fract_x
 _atom_site_fract_y
 _atom_site_fract_z
 _atom_site_fract_occupancy
 Fe  Fe1  1  0.17043  0.35233  0.70720  1
 Fe  Fe2  1  0.33446  0.16049  0.21658  1
 Fe  Fe3  1  0.81796  0.18151  0.21780  1
 Li  Li1  1  0.67421  0.33226  0.90056  1
 Li  Li2  1  0.00323  0.01243  0.48651  1
 Li  Li3  1  -0.00950  0.00942  0.00420  1
 Li  Li4  1  0.33554  0.66932  0.39182  1
 Nb  Nb1  1  0.81696  0.64318  0.22380  1
 Nb  Nb2  1  0.17328  0.80591  0.71007  1
 Nb  Nb3  1  0.68114  0.83000  0.72501  1
 O  O1  1  0.52331  0.03258  0.33298  1
 O  O2  1  0.29981  0.13562  0.59631  1
 O  O3  1  0.49579  0.98321  0.81987  1
 O  O4  1  0.66236  0.34015  0.10008  1
 O  O5  1  0.98232  0.00347  0.30746  1
 O  O6  1  0.00419  0.99465  0.82017  1
 O  O7  1  0.84573  0.15278  0.60143  1
 O  O8  1  0.97690  0.49119  0.33500  1
 O  O9  1  0.14550  0.83117  0.10300  1
 O  O10  1  0.02519  0.51925  0.83185  1
 O  O11  1  0.51393  0.50988  0.80932  1
 O  O12  1  0.37381  0.69381  0.59525  1
 O  O13  1  0.51512  0.49817  0.32683  1
 O  O14  1  0.12777  0.31148  0.11650  1
 O  O15  1  0.86663  0.70154  0.60234  1
 O  O16  1  0.68390  0.86203  0.11350  1
 Sb  Sb1  1  0.32018  0.64749  0.01898  1
 Sb  Sb2  1  0.63955  0.29465  0.49344  1
