CIF file written using JARVIS-Tools package.
data_ZrMoP
_symmetry_space_group_name_H-M  'P-62m'
_cell_length_a       6.968
_cell_length_b       6.968
_cell_length_c       3.46489
_cell_angle_alpha    90
_cell_angle_beta     90
_cell_angle_gamma    120

_symmetry_Int_Tables_number  189
_chemical_formula_structural  ZrMoP
_chemical_formula_sum  Zr3Mo3P3
_cell_volume  145.69232176913707
_cell_formula_units_Z  3
loop_
  _symmetry_equiv_pos_site_id
 _symmetry_equiv_pos_as_xyz
 1  'x, y, z'
loop_
 _atom_site_type_symbol
 _atom_site_label
 _atom_site_symmetry_multiplicity
 _atom_site_fract_x
 _atom_site_fract_y
 _atom_site_fract_z
 _atom_site_fract_occupancy
 Mo  Mo1  1  0.74829  -0.00000  0.00000  1
 Mo  Mo2  1  -0.00000  0.74829  0.00000  1
 Mo  Mo3  1  0.25171  0.25171  0.00000  1
 P  P1  1  0.66667  0.33333  0.00000  1
 P  P2  1  0.33333  0.66667  0.00000  1
 P  P3  1  0.00000  0.00000  0.50000  1
 Zr  Zr1  1  0.59590  0.59590  0.50000  1
 Zr  Zr2  1  -0.00000  0.40410  0.50000  1
 Zr  Zr3  1  0.40410  -0.00000  0.50000  1
