CIF file written using JARVIS-Tools package.
data_Te6Mo3WS2
_symmetry_space_group_name_H-M  'Cm'
_cell_length_a       3.46915
_cell_length_b       3.46897
_cell_length_c       34.4218
_cell_angle_alpha    89.9809
_cell_angle_beta     90
_cell_angle_gamma    120.002

_symmetry_Int_Tables_number  8
_chemical_formula_structural  Te6Mo3WS2
_chemical_formula_sum  Te6Mo3WS2
_cell_volume  358.7413819278965
_cell_formula_units_Z  1
loop_
  _symmetry_equiv_pos_site_id
 _symmetry_equiv_pos_as_xyz
 1  'x, y, z'
loop_
 _atom_site_type_symbol
 _atom_site_label
 _atom_site_symmetry_multiplicity
 _atom_site_fract_x
 _atom_site_fract_y
 _atom_site_fract_z
 _atom_site_fract_occupancy
 Mo  Mo1  1  0.33261  0.66522  0.08388  1
 Mo  Mo2  1  0.33350  0.66699  0.46678  1
 Mo  Mo3  1  0.66645  0.33291  0.27531  1
 S  S1  1  0.33312  0.66625  0.31839  1
 S  S2  1  0.33311  0.66622  0.23224  1
 Te  Te1  1  0.33391  0.66783  0.73085  1
 Te  Te2  1  0.66609  0.33219  0.03023  1
 Te  Te3  1  0.66697  0.33394  0.41299  1
 Te  Te4  1  0.66581  0.33163  0.13770  1
 Te  Te5  1  0.66667  0.33335  0.52048  1
 Te  Te6  1  0.33429  0.66858  0.62295  1
 W  W1  1  0.66745  0.33490  0.67697  1
