CIF file written using JARVIS-Tools package.
data_PrAgAs2
_symmetry_space_group_name_H-M  'Pnma'
_cell_length_a       4.0872
_cell_length_b       4.11979
_cell_length_c       21.2866
_cell_angle_alpha    90
_cell_angle_beta     90
_cell_angle_gamma    90

_symmetry_Int_Tables_number  62
_chemical_formula_structural  PrAgAs2
_chemical_formula_sum  Pr4Ag4As8
_cell_volume  358.4324240455417
_cell_formula_units_Z  4
loop_
  _symmetry_equiv_pos_site_id
 _symmetry_equiv_pos_as_xyz
 1  'x, y, z'
loop_
 _atom_site_type_symbol
 _atom_site_label
 _atom_site_symmetry_multiplicity
 _atom_site_fract_x
 _atom_site_fract_y
 _atom_site_fract_z
 _atom_site_fract_occupancy
 Ag  Ag1  1  0.25000  0.22394  0.25007  1
 Ag  Ag2  1  0.75000  0.72394  0.24993  1
 Ag  Ag3  1  0.75000  0.77606  0.74993  1
 Ag  Ag4  1  0.25000  0.27606  0.75007  1
 As  As1  1  0.25000  0.77492  0.83865  1
 As  As2  1  0.75000  0.22508  0.16135  1
 As  As3  1  0.75000  0.27492  0.66135  1
 As  As4  1  0.25000  0.72508  0.33865  1
 As  As5  1  0.25000  0.29779  0.50163  1
 As  As6  1  0.25000  0.20221  0.00163  1
 As  As7  1  0.75000  0.79779  0.99837  1
 As  As8  1  0.75000  0.70221  0.49837  1
 Pr  Pr1  1  0.25000  0.77445  0.61593  1
 Pr  Pr2  1  0.75000  0.22555  0.38407  1
 Pr  Pr3  1  0.75000  0.27445  0.88407  1
 Pr  Pr4  1  0.25000  0.72555  0.11593  1
