CIF file written using JARVIS-Tools package.
data_HfNi3
_symmetry_space_group_name_H-M  'R-3m'
_cell_length_a       7.11928
_cell_length_b       7.11928
_cell_length_c       7.11928
_cell_angle_alpha    43.4157
_cell_angle_beta     43.4157
_cell_angle_gamma    43.4157

_symmetry_Int_Tables_number  166
_chemical_formula_structural  HfNi3
_chemical_formula_sum  Hf3Ni9
_cell_volume  154.62343156557364
_cell_formula_units_Z  3
loop_
  _symmetry_equiv_pos_site_id
 _symmetry_equiv_pos_as_xyz
 1  'x, y, z'
loop_
 _atom_site_type_symbol
 _atom_site_label
 _atom_site_symmetry_multiplicity
 _atom_site_fract_x
 _atom_site_fract_y
 _atom_site_fract_z
 _atom_site_fract_occupancy
 Hf  Hf1  1  0.78128  0.78128  0.78128  1
 Hf  Hf2  1  0.21872  0.21872  0.21872  1
 Hf  Hf3  1  0.00000  0.00000  0.00000  1
 Ni  Ni1  1  0.71328  0.24333  0.71328  1
 Ni  Ni2  1  0.24333  0.71328  0.71328  1
 Ni  Ni3  1  0.71328  0.71328  0.24333  1
 Ni  Ni4  1  0.50000  0.50000  0.00000  1
 Ni  Ni5  1  -0.00000  0.50000  0.50000  1
 Ni  Ni6  1  0.50000  -0.00000  0.50000  1
 Ni  Ni7  1  0.28672  0.28672  0.75667  1
 Ni  Ni8  1  0.75667  0.28672  0.28672  1
 Ni  Ni9  1  0.28672  0.75667  0.28672  1
