CIF file written using JARVIS-Tools package.
data_NdH3O3
_symmetry_space_group_name_H-M  'P6_3/m'
_cell_length_a       6.44907
_cell_length_b       3.73653
_cell_length_c       6.44833
_cell_angle_alpha    90
_cell_angle_beta     119.999
_cell_angle_gamma    90

_symmetry_Int_Tables_number  176
_chemical_formula_structural  NdH3O3
_chemical_formula_sum  Nd2H6O6
_cell_volume  134.5694715636496
_cell_formula_units_Z  2
loop_
  _symmetry_equiv_pos_site_id
 _symmetry_equiv_pos_as_xyz
 1  'x, y, z'
loop_
 _atom_site_type_symbol
 _atom_site_label
 _atom_site_symmetry_multiplicity
 _atom_site_fract_x
 _atom_site_fract_y
 _atom_site_fract_z
 _atom_site_fract_occupancy
 H  H1  1  0.13368  0.00000  0.85711  1
 H  H2  1  0.13663  0.00000  0.26707  1
 H  H3  1  0.72639  0.00000  0.85996  1
 H  H4  1  0.86411  0.50000  0.13241  1
 H  H5  1  0.86115  0.50000  0.72243  1
 H  H6  1  0.27140  0.50000  0.12955  1
 Nd  Nd1  1  0.66559  0.00000  0.32811  1
 Nd  Nd2  1  0.33219  0.50000  0.66140  1
 O  O1  1  0.08081  0.00000  0.68635  1
 O  O2  1  0.30734  0.00000  0.38508  1
 O  O3  1  0.60849  0.00000  0.91280  1
 O  O4  1  0.91698  0.50000  0.30317  1
 O  O5  1  0.69044  0.50000  0.60443  1
 O  O6  1  0.38929  0.50000  0.07671  1
