CIF file written using JARVIS-Tools package.
data_CeSi2Pt2
_symmetry_space_group_name_H-M  'P4/nmm'
_cell_length_a       4.27662
_cell_length_b       4.27662
_cell_length_c       9.79771
_cell_angle_alpha    90
_cell_angle_beta     90
_cell_angle_gamma    90

_symmetry_Int_Tables_number  129
_chemical_formula_structural  CeSi2Pt2
_chemical_formula_sum  Ce2Si4Pt4
_cell_volume  179.19504499218093
_cell_formula_units_Z  2
loop_
  _symmetry_equiv_pos_site_id
 _symmetry_equiv_pos_as_xyz
 1  'x, y, z'
loop_
 _atom_site_type_symbol
 _atom_site_label
 _atom_site_symmetry_multiplicity
 _atom_site_fract_x
 _atom_site_fract_y
 _atom_site_fract_z
 _atom_site_fract_occupancy
 Ce  Ce1  1  0.50000  0.00000  0.25216  1
 Ce  Ce2  1  0.00000  0.50000  0.74784  1
 Pt  Pt1  1  0.50000  0.50000  0.00000  1
 Pt  Pt2  1  0.50000  0.00000  0.62083  1
 Pt  Pt3  1  0.00000  0.50000  0.37917  1
 Pt  Pt4  1  0.00000  0.00000  0.00000  1
 Si  Si1  1  0.00000  0.00000  0.50000  1
 Si  Si2  1  0.00000  0.50000  0.13241  1
 Si  Si3  1  0.50000  0.50000  0.50000  1
 Si  Si4  1  0.50000  0.00000  0.86759  1
