CIF file written using JARVIS-Tools package.
data_BaHg2Cl2O2
_symmetry_space_group_name_H-M  'P4/mbm'
_cell_length_a       11.994
_cell_length_b       11.994
_cell_length_c       4.34438
_cell_angle_alpha    90
_cell_angle_beta     90
_cell_angle_gamma    90

_symmetry_Int_Tables_number  127
_chemical_formula_structural  BaHg2Cl2O2
_chemical_formula_sum  Ba4Hg8Cl8O8
_cell_volume  624.9692745056461
_cell_formula_units_Z  4
loop_
  _symmetry_equiv_pos_site_id
 _symmetry_equiv_pos_as_xyz
 1  'x, y, z'
loop_
 _atom_site_type_symbol
 _atom_site_label
 _atom_site_symmetry_multiplicity
 _atom_site_fract_x
 _atom_site_fract_y
 _atom_site_fract_z
 _atom_site_fract_occupancy
 Ba  Ba1  1  0.63512  0.13512  0.00000  1
 Ba  Ba2  1  0.36488  0.86488  0.00000  1
 Ba  Ba3  1  0.13512  0.36488  0.00000  1
 Ba  Ba4  1  0.86488  0.63512  0.00000  1
 Cl  Cl1  1  0.82987  0.32987  0.00000  1
 Cl  Cl2  1  0.50000  0.00000  0.50000  1
 Cl  Cl3  1  0.67013  0.82987  0.00000  1
 Cl  Cl4  1  0.32987  0.17013  0.00000  1
 Cl  Cl5  1  0.00000  0.00000  0.00000  1
 Cl  Cl6  1  0.50000  0.50000  0.00000  1
 Cl  Cl7  1  0.00000  0.50000  0.50000  1
 Cl  Cl8  1  0.17013  0.67013  0.00000  1
 Hg  Hg1  1  0.92102  0.17393  0.50000  1
 Hg  Hg2  1  0.07898  0.82607  0.50000  1
 Hg  Hg3  1  0.82607  0.92102  0.50000  1
 Hg  Hg4  1  0.57898  0.67393  0.50000  1
 Hg  Hg5  1  0.17393  0.07898  0.50000  1
 Hg  Hg6  1  0.32607  0.57898  0.50000  1
 Hg  Hg7  1  0.67393  0.42102  0.50000  1
 Hg  Hg8  1  0.42102  0.32607  0.50000  1
 O  O1  1  0.08611  0.23035  0.50000  1
 O  O2  1  0.76965  0.08611  0.50000  1
 O  O3  1  0.58611  0.26965  0.50000  1
 O  O4  1  0.41389  0.73035  0.50000  1
 O  O5  1  0.26965  0.41389  0.50000  1
 O  O6  1  0.91389  0.76965  0.50000  1
 O  O7  1  0.23035  0.91389  0.50000  1
 O  O8  1  0.73035  0.58611  0.50000  1
