CIF file written using JARVIS-Tools package.
data_Zr3NiO
_symmetry_space_group_name_H-M  'Cmcm'
_cell_length_a       3.35235
_cell_length_b       5.72741
_cell_length_c       8.81387
_cell_angle_alpha    90
_cell_angle_beta     90
_cell_angle_gamma    107.017

_symmetry_Int_Tables_number  63
_chemical_formula_structural  Zr3NiO
_chemical_formula_sum  Zr6Ni2O2
_cell_volume  161.81965793095225
_cell_formula_units_Z  2
loop_
  _symmetry_equiv_pos_site_id
 _symmetry_equiv_pos_as_xyz
 1  'x, y, z'
loop_
 _atom_site_type_symbol
 _atom_site_label
 _atom_site_symmetry_multiplicity
 _atom_site_fract_x
 _atom_site_fract_y
 _atom_site_fract_z
 _atom_site_fract_occupancy
 Ni  Ni1  1  0.75437  0.50873  0.25000  1
 Ni  Ni2  1  0.24564  0.49127  0.75000  1
 O  O1  1  0.00000  0.00000  0.50000  1
 O  O2  1  0.00000  0.00000  0.00000  1
 Zr  Zr1  1  0.06473  0.12946  0.25000  1
 Zr  Zr2  1  0.93527  0.87053  0.75000  1
 Zr  Zr3  1  0.36493  0.72987  0.05943  1
 Zr  Zr4  1  0.63507  0.27013  0.94057  1
 Zr  Zr5  1  0.63507  0.27013  0.55943  1
 Zr  Zr6  1  0.36493  0.72987  0.44057  1
