CIF file written using JARVIS-Tools package.
data_Pr3Cl
_symmetry_space_group_name_H-M  'P6_3/mmc'
_cell_length_a       6.86314
_cell_length_b       6.86314
_cell_length_c       5.80702
_cell_angle_alpha    90
_cell_angle_beta     90
_cell_angle_gamma    120

_symmetry_Int_Tables_number  194
_chemical_formula_structural  Pr3Cl
_chemical_formula_sum  Pr6Cl2
_cell_volume  236.88027066255628
_cell_formula_units_Z  2
loop_
  _symmetry_equiv_pos_site_id
 _symmetry_equiv_pos_as_xyz
 1  'x, y, z'
loop_
 _atom_site_type_symbol
 _atom_site_label
 _atom_site_symmetry_multiplicity
 _atom_site_fract_x
 _atom_site_fract_y
 _atom_site_fract_z
 _atom_site_fract_occupancy
 Cl  Cl1  1  0.33333  0.66667  0.25000  1
 Cl  Cl2  1  0.66667  0.33333  0.75000  1
 Pr  Pr1  1  0.16810  0.83190  0.75000  1
 Pr  Pr2  1  0.66380  0.83190  0.75000  1
 Pr  Pr3  1  0.16810  0.33620  0.75000  1
 Pr  Pr4  1  0.83190  0.16810  0.25000  1
 Pr  Pr5  1  0.33620  0.16810  0.25000  1
 Pr  Pr6  1  0.83190  0.66380  0.25000  1
