CIF file written using JARVIS-Tools package.
data_Si
_symmetry_space_group_name_H-M  'P1'
_cell_length_a       5.51676
_cell_length_b       3.98115
_cell_length_c       9.2251
_cell_angle_alpha    78.234
_cell_angle_beta     108.52
_cell_angle_gamma    111.237

_symmetry_Int_Tables_number  1
_chemical_formula_structural  Si
_chemical_formula_sum  Si8
_cell_volume  178.1641275818845
_cell_formula_units_Z  8
loop_
  _symmetry_equiv_pos_site_id
 _symmetry_equiv_pos_as_xyz
 1  'x, y, z'
loop_
 _atom_site_type_symbol
 _atom_site_label
 _atom_site_symmetry_multiplicity
 _atom_site_fract_x
 _atom_site_fract_y
 _atom_site_fract_z
 _atom_site_fract_occupancy
 Si  Si1  1  0.82508  0.08547  0.08784  1
 Si  Si2  1  0.20593  0.01026  0.05836  1
 Si  Si3  1  0.01029  0.56844  0.24361  1
 Si  Si4  1  0.36308  0.11907  0.62734  1
 Si  Si5  1  0.06824  0.85186  0.80134  1
 Si  Si6  1  0.84173  0.29658  0.68176  1
 Si  Si7  1  0.13593  0.56077  0.51154  1
 Si  Si8  1  0.56457  0.50016  -0.00520  1
