CIF file written using JARVIS-Tools package.
data_CaMnF5
_symmetry_space_group_name_H-M  'C2/c'
_cell_length_a       5.50452
_cell_length_b       5.50452
_cell_length_c       7.62025
_cell_angle_alpha    95.8202
_cell_angle_beta     113.162
_cell_angle_gamma    108.366

_symmetry_Int_Tables_number  15
_chemical_formula_structural  CaMnF5
_chemical_formula_sum  Ca2Mn2F0
_cell_volume  194.63247906605466
_cell_formula_units_Z  2
loop_
  _symmetry_equiv_pos_site_id
 _symmetry_equiv_pos_as_xyz
 1  'x, y, z'
loop_
 _atom_site_type_symbol
 _atom_site_label
 _atom_site_symmetry_multiplicity
 _atom_site_fract_x
 _atom_site_fract_y
 _atom_site_fract_z
 _atom_site_fract_occupancy
 Ca  Ca1  1  0.29730  0.54730  0.75000  1
 Ca  Ca2  1  0.70270  0.45270  0.25000  1
 F  F1  1  0.32066  0.07066  0.25000  1
 F  F2  1  0.67934  0.92934  0.75000  1
 F  F3  1  0.57949  0.74422  0.38190  1
 F  F4  1  0.86232  0.19759  0.11810  1
 F  F5  1  0.75304  0.68943  0.02694  1
 F  F6  1  0.16250  0.72610  0.47306  1
 F  F7  1  0.24696  0.31057  0.97306  1
 F  F8  1  0.83750  0.27390  0.52694  1
 F  F9  1  0.13768  0.80241  0.88190  1
 F  F10  1  0.42051  0.25578  0.61810  1
 Mn  Mn1  1  0.00000  0.00000  0.00000  1
 Mn  Mn2  1  0.50000  0.00000  0.50000  1
