CIF file written using JARVIS-Tools package.
data_TiCoSi
_symmetry_space_group_name_H-M  'P-62m'
_cell_length_a       6.0409
_cell_length_b       6.0409
_cell_length_c       3.71534
_cell_angle_alpha    90
_cell_angle_beta     90
_cell_angle_gamma    120

_symmetry_Int_Tables_number  189
_chemical_formula_structural  TiCoSi
_chemical_formula_sum  Ti3Co3Si3
_cell_volume  117.4173850859189
_cell_formula_units_Z  3
loop_
  _symmetry_equiv_pos_site_id
 _symmetry_equiv_pos_as_xyz
 1  'x, y, z'
loop_
 _atom_site_type_symbol
 _atom_site_label
 _atom_site_symmetry_multiplicity
 _atom_site_fract_x
 _atom_site_fract_y
 _atom_site_fract_z
 _atom_site_fract_occupancy
 Co  Co1  1  0.00000  0.24346  0.00000  1
 Co  Co2  1  0.75654  0.75654  0.00000  1
 Co  Co3  1  0.24346  0.00000  0.00000  1
 Si  Si1  1  0.66667  0.33333  0.00000  1
 Si  Si2  1  0.33333  0.66667  0.00000  1
 Si  Si3  1  0.00000  0.00000  0.50000  1
 Ti  Ti1  1  0.43445  0.43445  0.50000  1
 Ti  Ti2  1  0.00000  0.56555  0.50000  1
 Ti  Ti3  1  0.56555  0.00000  0.50000  1
