CIF file written using JARVIS-Tools package.
data_Kr
_symmetry_space_group_name_H-M  'R-3m'
_cell_length_a       3.96788
_cell_length_b       3.96788
_cell_length_c       9.98339
_cell_angle_alpha    101.462
_cell_angle_beta     78.5377
_cell_angle_gamma    120

_symmetry_Int_Tables_number  166
_chemical_formula_structural  Kr
_chemical_formula_sum  Kr3
_cell_volume  132.488658969579
_cell_formula_units_Z  3
loop_
  _symmetry_equiv_pos_site_id
 _symmetry_equiv_pos_as_xyz
 1  'x, y, z'
loop_
 _atom_site_type_symbol
 _atom_site_label
 _atom_site_symmetry_multiplicity
 _atom_site_fract_x
 _atom_site_fract_y
 _atom_site_fract_z
 _atom_site_fract_occupancy
 Kr  Kr1  1  0.00000  0.00000  0.00000  1
 Kr  Kr2  1  0.22220  0.77780  0.33339  1
 Kr  Kr3  1  0.77780  0.22220  0.66661  1
