CIF file written using JARVIS-Tools package.
data_Fe9Cu3O16
_symmetry_space_group_name_H-M  'P-4m2'
_cell_length_a       5.75765
_cell_length_b       5.75757
_cell_length_c       8.14351
_cell_angle_alpha    90.0001
_cell_angle_beta     89.9993
_cell_angle_gamma    90.0004

_symmetry_Int_Tables_number  115
_chemical_formula_structural  Fe9Cu3O16
_chemical_formula_sum  Fe9Cu3O6
_cell_volume  269.9580880176046
_cell_formula_units_Z  1
loop_
  _symmetry_equiv_pos_site_id
 _symmetry_equiv_pos_as_xyz
 1  'x, y, z'
loop_
 _atom_site_type_symbol
 _atom_site_label
 _atom_site_symmetry_multiplicity
 _atom_site_fract_x
 _atom_site_fract_y
 _atom_site_fract_z
 _atom_site_fract_occupancy
 Cu  Cu1  1  0.00001  0.49999  0.74826  1
 Cu  Cu2  1  0.49999  0.50000  0.50001  1
 Cu  Cu3  1  0.50000  -0.00000  0.25175  1
 Fe  Fe1  1  0.50000  0.74899  0.87512  1
 Fe  Fe2  1  0.50001  0.25101  0.87512  1
 Fe  Fe3  1  0.25067  1.00000  0.62496  1
 Fe  Fe4  1  0.00001  0.00001  0.00000  1
 Fe  Fe5  1  1.00000  0.74933  0.37503  1
 Fe  Fe6  1  1.00000  0.25067  0.37504  1
 Fe  Fe7  1  0.74898  0.50000  0.12488  1
 Fe  Fe8  1  0.25101  0.50000  0.12488  1
 Fe  Fe9  1  0.74934  -0.00000  0.62496  1
 O  O1  1  0.77757  0.50000  0.35993  1
 O  O2  1  0.49999  0.72066  0.11178  1
 O  O3  1  0.27936  0.50000  0.88822  1
 O  O4  1  -0.00001  0.27155  0.13456  1
 O  O5  1  -0.00000  0.72846  0.13456  1
 O  O6  1  0.22242  0.50000  0.35993  1
 O  O7  1  0.50000  0.27934  0.11178  1
 O  O8  1  0.27155  0.00000  0.86544  1
 O  O9  1  0.00000  0.22188  0.60978  1
 O  O10  1  0.50000  0.22243  0.64007  1
 O  O11  1  0.50000  0.77757  0.64007  1
 O  O12  1  0.72847  -0.00000  0.86544  1
 O  O13  1  0.77812  0.00000  0.39022  1
 O  O14  1  0.00000  0.77811  0.60978  1
 O  O15  1  0.22187  0.00000  0.39021  1
 O  O16  1  0.72066  0.50000  0.88822  1
