CIF file written using JARVIS-Tools package.
data_SmCoSi3
_symmetry_space_group_name_H-M  'I4mm'
_cell_length_a       5.61659
_cell_length_b       5.61659
_cell_length_c       5.61659
_cell_angle_alpha    136.833
_cell_angle_beta     136.833
_cell_angle_gamma    62.6944

_symmetry_Int_Tables_number  107
_chemical_formula_structural  SmCoSi3
_chemical_formula_sum  SmCoSi3
_cell_volume  81.90284312367383
_cell_formula_units_Z  1
loop_
  _symmetry_equiv_pos_site_id
 _symmetry_equiv_pos_as_xyz
 1  'x, y, z'
loop_
 _atom_site_type_symbol
 _atom_site_label
 _atom_site_symmetry_multiplicity
 _atom_site_fract_x
 _atom_site_fract_y
 _atom_site_fract_z
 _atom_site_fract_occupancy
 Co  Co1  1  0.66161  0.66161  -0.00000  1
 Si  Si1  1  0.76070  0.26070  0.50000  1
 Si  Si2  1  0.26070  0.76070  0.50000  1
 Si  Si3  1  0.42814  0.42814  -0.00000  1
 Sm  Sm1  1  0.00385  0.00385  0.00000  1
