CIF file written using JARVIS-Tools package.
data_LuBr
_symmetry_space_group_name_H-M  'P6_3mc'
_cell_length_a       3.56858
_cell_length_b       3.56858
_cell_length_c       9.82164
_cell_angle_alpha    90
_cell_angle_beta     90
_cell_angle_gamma    120

_symmetry_Int_Tables_number  186
_chemical_formula_structural  LuBr
_chemical_formula_sum  Lu2Br2
_cell_volume  108.31952243780535
_cell_formula_units_Z  2
loop_
  _symmetry_equiv_pos_site_id
 _symmetry_equiv_pos_as_xyz
 1  'x, y, z'
loop_
 _atom_site_type_symbol
 _atom_site_label
 _atom_site_symmetry_multiplicity
 _atom_site_fract_x
 _atom_site_fract_y
 _atom_site_fract_z
 _atom_site_fract_occupancy
 Br  Br1  1  0.33333  0.66667  0.04444  1
 Br  Br2  1  0.66667  0.33333  0.54444  1
 Lu  Lu1  1  0.33333  0.66667  0.33056  1
 Lu  Lu2  1  0.66667  0.33333  0.83056  1
