CIF file written using JARVIS-Tools package.
data_ScClO
_symmetry_space_group_name_H-M  'P4/nmm'
_cell_length_a       3.55836
_cell_length_b       3.55836
_cell_length_c       7.68558
_cell_angle_alpha    90
_cell_angle_beta     90
_cell_angle_gamma    90

_symmetry_Int_Tables_number  129
_chemical_formula_structural  ScClO
_chemical_formula_sum  Sc2Cl2O2
_cell_volume  97.31419618017563
_cell_formula_units_Z  2
loop_
  _symmetry_equiv_pos_site_id
 _symmetry_equiv_pos_as_xyz
 1  'x, y, z'
loop_
 _atom_site_type_symbol
 _atom_site_label
 _atom_site_symmetry_multiplicity
 _atom_site_fract_x
 _atom_site_fract_y
 _atom_site_fract_z
 _atom_site_fract_occupancy
 Cl  Cl1  1  0.50000  0.00000  0.66969  1
 Cl  Cl2  1  0.00000  0.50000  0.33031  1
 O  O1  1  0.00000  0.00000  0.00000  1
 O  O2  1  0.50000  0.50000  0.00000  1
 Sc  Sc1  1  0.50000  0.00000  0.13924  1
 Sc  Sc2  1  0.00000  0.50000  0.86076  1
