CIF file written using JARVIS-Tools package.
data_Pa3Ta
_symmetry_space_group_name_H-M  'P6_3/mmc'
_cell_length_a       6.28559
_cell_length_b       6.28559
_cell_length_c       5.63017
_cell_angle_alpha    90
_cell_angle_beta     90
_cell_angle_gamma    120

_symmetry_Int_Tables_number  194
_chemical_formula_structural  Pa3Ta
_chemical_formula_sum  Pa6Ta2
_cell_volume  192.63904801104508
_cell_formula_units_Z  2
loop_
  _symmetry_equiv_pos_site_id
 _symmetry_equiv_pos_as_xyz
 1  'x, y, z'
loop_
 _atom_site_type_symbol
 _atom_site_label
 _atom_site_symmetry_multiplicity
 _atom_site_fract_x
 _atom_site_fract_y
 _atom_site_fract_z
 _atom_site_fract_occupancy
 Pa  Pa1  1  0.82754  0.17246  0.25000  1
 Pa  Pa2  1  0.82754  0.65508  0.25000  1
 Pa  Pa3  1  0.34492  0.17246  0.25000  1
 Pa  Pa4  1  0.17246  0.82754  0.75000  1
 Pa  Pa5  1  0.17246  0.34492  0.75000  1
 Pa  Pa6  1  0.65508  0.82754  0.75000  1
 Ta  Ta1  1  0.66667  0.33333  0.75000  1
 Ta  Ta2  1  0.33333  0.66667  0.25000  1
