CIF file written using JARVIS-Tools package.
data_NaMn7O12
_symmetry_space_group_name_H-M  'Im-3'
_cell_length_a       6.35081
_cell_length_b       6.3508
_cell_length_c       6.3508
_cell_angle_alpha    109.471
_cell_angle_beta     109.471
_cell_angle_gamma    109.471

_symmetry_Int_Tables_number  204
_chemical_formula_structural  NaMn7O12
_chemical_formula_sum  NaMn7O2
_cell_volume  197.18059960770032
_cell_formula_units_Z  1
loop_
  _symmetry_equiv_pos_site_id
 _symmetry_equiv_pos_as_xyz
 1  'x, y, z'
loop_
 _atom_site_type_symbol
 _atom_site_label
 _atom_site_symmetry_multiplicity
 _atom_site_fract_x
 _atom_site_fract_y
 _atom_site_fract_z
 _atom_site_fract_occupancy
 Mn  Mn1  1  0.50000  0.00000  -0.00000  1
 Mn  Mn2  1  0.50000  0.50000  -0.00000  1
 Mn  Mn3  1  0.50000  0.00000  0.50000  1
 Mn  Mn4  1  0.50000  0.50000  0.50000  1
 Mn  Mn5  1  0.00000  0.50000  -0.00000  1
 Mn  Mn6  1  0.00000  0.00000  0.50000  1
 Mn  Mn7  1  0.00000  0.50000  0.50000  1
 Na  Na1  1  0.00000  0.00000  0.00000  1
 O  O1  1  0.18224  0.68872  0.87096  1
 O  O2  1  0.81776  0.68872  0.50648  1
 O  O3  1  0.31128  0.49352  0.18224  1
 O  O4  1  0.49352  0.18224  0.31128  1
 O  O5  1  0.12904  0.81776  0.31128  1
 O  O6  1  0.87096  0.18224  0.68872  1
 O  O7  1  0.50648  0.81776  0.68872  1
 O  O8  1  0.81776  0.31128  0.12904  1
 O  O9  1  0.18224  0.31128  0.49352  1
 O  O10  1  0.31128  0.12904  0.81776  1
 O  O11  1  0.68872  0.87096  0.18224  1
 O  O12  1  0.68872  0.50648  0.81776  1
