CIF file written using JARVIS-Tools package.
data_Re3Ru
_symmetry_space_group_name_H-M  'Imm2'
_cell_length_a       5.22823
_cell_length_b       5.22823
_cell_length_c       5.22823
_cell_angle_alpha    64.2311
_cell_angle_beta     149.322
_cell_angle_gamma    125.078

_symmetry_Int_Tables_number  44
_chemical_formula_structural  Re3Ru
_chemical_formula_sum  Re3Ru
_cell_volume  59.06089419009419
_cell_formula_units_Z  1
loop_
  _symmetry_equiv_pos_site_id
 _symmetry_equiv_pos_as_xyz
 1  'x, y, z'
loop_
 _atom_site_type_symbol
 _atom_site_label
 _atom_site_symmetry_multiplicity
 _atom_site_fract_x
 _atom_site_fract_y
 _atom_site_fract_z
 _atom_site_fract_occupancy
 Re  Re1  1  0.67082  0.17082  0.50000  1
 Re  Re2  1  0.99891  0.25002  0.25111  1
 Re  Re3  1  0.99891  0.74780  0.74889  1
 Ru  Ru1  1  0.66476  0.66476  -0.00000  1
