CIF file written using JARVIS-Tools package.
data_Pr6Cd4Pd13
_symmetry_space_group_name_H-M  'Im-3m'
_cell_length_a       8.5629
_cell_length_b       8.5629
_cell_length_c       8.5629
_cell_angle_alpha    109.471
_cell_angle_beta     109.471
_cell_angle_gamma    109.471

_symmetry_Int_Tables_number  229
_chemical_formula_structural  Pr6Cd4Pd13
_chemical_formula_sum  Pr6Cd4Pd3
_cell_volume  483.3264283534419
_cell_formula_units_Z  1
loop_
  _symmetry_equiv_pos_site_id
 _symmetry_equiv_pos_as_xyz
 1  'x, y, z'
loop_
 _atom_site_type_symbol
 _atom_site_label
 _atom_site_symmetry_multiplicity
 _atom_site_fract_x
 _atom_site_fract_y
 _atom_site_fract_z
 _atom_site_fract_occupancy
 Cd  Cd1  1  0.50000  0.00000  -0.00000  1
 Cd  Cd2  1  -0.00000  0.50000  -0.00000  1
 Cd  Cd3  1  0.00000  0.00000  0.50000  1
 Cd  Cd4  1  0.50000  0.50000  0.50000  1
 Pd  Pd1  1  0.31991  0.65996  0.65996  1
 Pd  Pd2  1  -0.00000  0.34004  0.65996  1
 Pd  Pd3  1  0.00000  0.00000  0.00000  1
 Pd  Pd4  1  0.34004  0.65996  0.00000  1
 Pd  Pd5  1  0.65996  0.31991  0.65996  1
 Pd  Pd6  1  0.65996  0.65996  0.31991  1
 Pd  Pd7  1  0.65996  -0.00000  0.34004  1
 Pd  Pd8  1  0.34004  0.34004  0.68009  1
 Pd  Pd9  1  0.68009  0.34004  0.34004  1
 Pd  Pd10  1  0.00000  0.65996  0.34004  1
 Pd  Pd11  1  0.34004  0.68009  0.34004  1
 Pd  Pd12  1  0.65996  0.34004  -0.00000  1
 Pd  Pd13  1  0.34004  0.00000  0.65996  1
 Pr  Pr1  1  -0.00000  0.30185  0.30185  1
 Pr  Pr2  1  0.69815  0.69815  0.00000  1
 Pr  Pr3  1  0.00000  0.69815  0.69815  1
 Pr  Pr4  1  0.30185  0.30185  -0.00000  1
 Pr  Pr5  1  0.69815  -0.00000  0.69815  1
 Pr  Pr6  1  0.30185  0.00000  0.30185  1
