CIF file written using JARVIS-Tools package.
data_TeMo2Se2S
_symmetry_space_group_name_H-M  'P3m1'
_cell_length_a       3.34824
_cell_length_b       3.34824
_cell_length_c       35.9205
_cell_angle_alpha    89.9999
_cell_angle_beta     90
_cell_angle_gamma    120

_symmetry_Int_Tables_number  156
_chemical_formula_structural  TeMo2Se2S
_chemical_formula_sum  Te2Mo4Se4S2
_cell_volume  348.74314574030154
_cell_formula_units_Z  2
loop_
  _symmetry_equiv_pos_site_id
 _symmetry_equiv_pos_as_xyz
 1  'x, y, z'
loop_
 _atom_site_type_symbol
 _atom_site_label
 _atom_site_symmetry_multiplicity
 _atom_site_fract_x
 _atom_site_fract_y
 _atom_site_fract_z
 _atom_site_fract_occupancy
 Mo  Mo1  1  0.33336  0.66671  0.09826  1
 Mo  Mo2  1  0.33330  0.66660  0.46822  1
 Mo  Mo3  1  0.66668  0.33336  0.27452  1
 Mo  Mo4  1  0.66666  0.33332  0.66194  1
 S  S1  1  0.66669  0.33338  0.05603  1
 S  S2  1  0.66669  0.33338  0.14053  1
 Se  Se1  1  0.33335  0.66669  0.32091  1
 Se  Se2  1  0.33333  0.66666  0.70828  1
 Se  Se3  1  0.33335  0.66670  0.22812  1
 Se  Se4  1  0.33333  0.66666  0.61552  1
 Te  Te1  1  0.66664  0.33328  0.41529  1
 Te  Te2  1  0.66663  0.33326  0.52112  1
