CIF file written using JARVIS-Tools package.
data_SrBeF4
_symmetry_space_group_name_H-M  'P2_1/c'
_cell_length_a       5.3833
_cell_length_b       8.23676
_cell_length_c       8.61542
_cell_angle_alpha    90
_cell_angle_beta     127.554
_cell_angle_gamma    90

_symmetry_Int_Tables_number  14
_chemical_formula_structural  SrBeF4
_chemical_formula_sum  Sr4Be4F6
_cell_volume  302.8525557501387
_cell_formula_units_Z  4
loop_
  _symmetry_equiv_pos_site_id
 _symmetry_equiv_pos_as_xyz
 1  'x, y, z'
loop_
 _atom_site_type_symbol
 _atom_site_label
 _atom_site_symmetry_multiplicity
 _atom_site_fract_x
 _atom_site_fract_y
 _atom_site_fract_z
 _atom_site_fract_occupancy
 Be  Be1  1  0.43138  0.95359  0.68363  1
 Be  Be2  1  0.56862  0.45359  0.81637  1
 Be  Be3  1  0.56862  0.04641  0.31637  1
 Be  Be4  1  0.43138  0.54641  0.18363  1
 F  F1  1  0.23933  0.81742  0.52909  1
 F  F2  1  0.20816  0.08804  0.17851  1
 F  F3  1  0.79184  0.58804  0.32149  1
 F  F4  1  0.79184  0.91196  0.82149  1
 F  F5  1  0.29962  0.95728  0.80376  1
 F  F6  1  0.41036  0.37653  0.09795  1
 F  F7  1  0.58964  0.87653  0.40205  1
 F  F8  1  0.20816  0.41196  0.67851  1
 F  F9  1  0.41036  0.12347  0.59795  1
 F  F10  1  0.70038  0.45728  0.69624  1
 F  F11  1  0.23933  0.68258  0.02909  1
 F  F12  1  0.58964  0.62347  0.90205  1
 F  F13  1  0.76067  0.31742  0.97091  1
 F  F14  1  0.70038  0.04272  0.19624  1
 F  F15  1  0.29962  0.54272  0.30376  1
 F  F16  1  0.76067  0.18258  0.47091  1
 Sr  Sr1  1  0.03145  0.19197  0.83105  1
 Sr  Sr2  1  0.96855  0.69197  0.66895  1
 Sr  Sr3  1  0.96855  0.80803  0.16895  1
 Sr  Sr4  1  0.03145  0.30803  0.33105  1
