CIF file written using JARVIS-Tools package.
data_Pr
_symmetry_space_group_name_H-M  'Fm-3m'
_cell_length_a       7.37031
_cell_length_b       7.37031
_cell_length_c       7.37031
_cell_angle_alpha    60.0024
_cell_angle_beta     60.0025
_cell_angle_gamma    60.0024

_symmetry_Int_Tables_number  225
_chemical_formula_structural  Pr
_chemical_formula_sum  Pr8
_cell_volume  283.1167324798877
_cell_formula_units_Z  8
loop_
  _symmetry_equiv_pos_site_id
 _symmetry_equiv_pos_as_xyz
 1  'x, y, z'
loop_
 _atom_site_type_symbol
 _atom_site_label
 _atom_site_symmetry_multiplicity
 _atom_site_fract_x
 _atom_site_fract_y
 _atom_site_fract_z
 _atom_site_fract_occupancy
 Pr  Pr1  1  0.25000  0.25000  0.25000  1
 Pr  Pr2  1  0.75000  0.75000  0.75000  1
 Pr  Pr3  1  0.75000  0.25000  0.75000  1
 Pr  Pr4  1  0.75000  0.75000  0.25000  1
 Pr  Pr5  1  0.25000  0.75000  0.75000  1
 Pr  Pr6  1  0.75000  0.25000  0.25000  1
 Pr  Pr7  1  0.25000  0.75000  0.25000  1
 Pr  Pr8  1  0.25000  0.25000  0.75000  1
