CIF file written using JARVIS-Tools package.
data_ThAl4C4
_symmetry_space_group_name_H-M  'I4/m'
_cell_length_a       3.34914
_cell_length_b       6.07604
_cell_length_c       6.07604
_cell_angle_alpha    85.6438
_cell_angle_beta     74.002
_cell_angle_gamma    74.002

_symmetry_Int_Tables_number  87
_chemical_formula_structural  ThAl4C4
_chemical_formula_sum  ThAl4C4
_cell_volume  114.2528235664639
_cell_formula_units_Z  1
loop_
  _symmetry_equiv_pos_site_id
 _symmetry_equiv_pos_as_xyz
 1  'x, y, z'
loop_
 _atom_site_type_symbol
 _atom_site_label
 _atom_site_symmetry_multiplicity
 _atom_site_fract_x
 _atom_site_fract_y
 _atom_site_fract_z
 _atom_site_fract_occupancy
 Al  Al1  1  0.17921  0.17945  0.46212  1
 Al  Al2  1  0.82079  0.82055  0.53788  1
 Al  Al3  1  0.64133  0.53788  0.17945  1
 Al  Al4  1  0.35867  0.46212  0.82055  1
 C  C1  1  0.58928  0.16319  0.65826  1
 C  C2  1  0.41072  0.83681  0.34174  1
 C  C3  1  0.24754  0.34174  0.16319  1
 C  C4  1  0.75246  0.65826  0.83681  1
 Th  Th1  1  0.00000  0.00000  0.00000  1
