CIF file written using JARVIS-Tools package.
data_TlCr3S5
_symmetry_space_group_name_H-M  'C2/m'
_cell_length_a       3.50131
_cell_length_b       9.84039
_cell_length_c       10.8326
_cell_angle_alpha    105.354
_cell_angle_beta     99.2999
_cell_angle_gamma    100.248

_symmetry_Int_Tables_number  12
_chemical_formula_structural  TlCr3S5
_chemical_formula_sum  Tl2Cr6S0
_cell_volume  345.4946750244098
_cell_formula_units_Z  2
loop_
  _symmetry_equiv_pos_site_id
 _symmetry_equiv_pos_as_xyz
 1  'x, y, z'
loop_
 _atom_site_type_symbol
 _atom_site_label
 _atom_site_symmetry_multiplicity
 _atom_site_fract_x
 _atom_site_fract_y
 _atom_site_fract_z
 _atom_site_fract_occupancy
 Cr  Cr1  1  0.50000  -0.00000  0.00000  1
 Cr  Cr2  1  0.00000  0.50000  0.50000  1
 Cr  Cr3  1  0.22432  0.06020  0.38845  1
 Cr  Cr4  1  0.77568  0.93980  0.61155  1
 Cr  Cr5  1  0.24469  0.26349  0.22588  1
 Cr  Cr6  1  0.75531  0.73651  0.77412  1
 S  S1  1  0.36306  0.10752  0.61862  1
 S  S2  1  0.42957  0.51129  0.34786  1
 S  S3  1  0.92365  -0.00086  0.84818  1
 S  S4  1  0.67230  0.26482  0.07978  1
 S  S5  1  0.07635  0.00086  0.15182  1
 S  S6  1  0.57043  0.48871  0.65214  1
 S  S7  1  0.18317  0.75841  0.60793  1
 S  S8  1  0.63694  0.89248  0.38138  1
 S  S9  1  0.32770  0.73518  0.92022  1
 S  S10  1  0.81683  0.24159  0.39207  1
 Tl  Tl1  1  0.08600  0.34538  0.82660  1
 Tl  Tl2  1  0.91400  0.65462  0.17340  1
