CIF file written using JARVIS-Tools package.
data_K2PaF7
_symmetry_space_group_name_H-M  'C2/c'
_cell_length_a       6.7151
_cell_length_b       7.6534
_cell_length_c       7.74223
_cell_angle_alpha    64.0305
_cell_angle_beta     64.2995
_cell_angle_gamma    63.979

_symmetry_Int_Tables_number  15
_chemical_formula_structural  K2PaF7
_chemical_formula_sum  K4Pa2F4
_cell_volume  306.75524637064944
_cell_formula_units_Z  2
loop_
  _symmetry_equiv_pos_site_id
 _symmetry_equiv_pos_as_xyz
 1  'x, y, z'
loop_
 _atom_site_type_symbol
 _atom_site_label
 _atom_site_symmetry_multiplicity
 _atom_site_fract_x
 _atom_site_fract_y
 _atom_site_fract_z
 _atom_site_fract_occupancy
 F  F1  1  0.34177  0.70718  0.06273  1
 F  F2  1  0.06369  0.49799  0.14325  1
 F  F3  1  0.70493  0.00201  0.35675  1
 F  F4  1  0.93631  0.50201  0.85675  1
 F  F5  1  0.64782  0.75000  0.25000  1
 F  F6  1  0.78742  0.58348  0.56932  1
 F  F7  1  0.29507  -0.00201  0.64325  1
 F  F8  1  0.21258  0.41652  0.43068  1
 F  F9  1  0.05978  0.08348  0.06932  1
 F  F10  1  0.35218  0.25000  0.75000  1
 F  F11  1  0.11168  0.79282  0.43727  1
 F  F12  1  0.65823  0.29282  0.93727  1
 F  F13  1  0.88832  0.20718  0.56273  1
 F  F14  1  0.94022  0.91652  0.93068  1
 K  K1  1  0.68111  0.89392  0.75732  1
 K  K2  1  0.33235  0.60608  0.74268  1
 K  K3  1  0.31889  0.10608  0.24268  1
 K  K4  1  0.66765  0.39392  0.25732  1
 Pa  Pa1  1  0.02192  0.25000  0.75000  1
 Pa  Pa2  1  0.97808  0.75000  0.25000  1
