CIF file written using JARVIS-Tools package.
data_NdVGe3
_symmetry_space_group_name_H-M  'P6_3/mmc'
_cell_length_a       6.26471
_cell_length_b       6.26466
_cell_length_c       5.64388
_cell_angle_alpha    90
_cell_angle_beta     90
_cell_angle_gamma    120

_symmetry_Int_Tables_number  194
_chemical_formula_structural  NdVGe3
_chemical_formula_sum  Nd2V2Ge6
_cell_volume  191.82537966156826
_cell_formula_units_Z  2
loop_
  _symmetry_equiv_pos_site_id
 _symmetry_equiv_pos_as_xyz
 1  'x, y, z'
loop_
 _atom_site_type_symbol
 _atom_site_label
 _atom_site_symmetry_multiplicity
 _atom_site_fract_x
 _atom_site_fract_y
 _atom_site_fract_z
 _atom_site_fract_occupancy
 Ge  Ge1  1  0.19424  0.38848  0.25000  1
 Ge  Ge2  1  0.19426  0.80578  0.25000  1
 Ge  Ge3  1  0.61152  0.80578  0.25000  1
 Ge  Ge4  1  0.38849  0.19422  0.75000  1
 Ge  Ge5  1  0.80574  0.19422  0.75000  1
 Ge  Ge6  1  0.80576  0.61152  0.75000  1
 Nd  Nd1  1  0.66669  0.33338  0.25000  1
 Nd  Nd2  1  0.33331  0.66662  0.75000  1
 V  V1  1  0.00000  0.00000  0.00000  1
 V  V2  1  0.00000  0.00000  0.50000  1
