CIF file written using JARVIS-Tools package.
data_Yb2Rb2O5
_symmetry_space_group_name_H-M  'P4/mmm'
_cell_length_a       4.3857
_cell_length_b       4.3857
_cell_length_c       9.02288
_cell_angle_alpha    90
_cell_angle_beta     90
_cell_angle_gamma    90

_symmetry_Int_Tables_number  123
_chemical_formula_structural  Yb2Rb2O5
_chemical_formula_sum  Yb2Rb2O5
_cell_volume  173.54919395089945
_cell_formula_units_Z  1
loop_
  _symmetry_equiv_pos_site_id
 _symmetry_equiv_pos_as_xyz
 1  'x, y, z'
loop_
 _atom_site_type_symbol
 _atom_site_label
 _atom_site_symmetry_multiplicity
 _atom_site_fract_x
 _atom_site_fract_y
 _atom_site_fract_z
 _atom_site_fract_occupancy
 O  O1  1  0.50000  0.00000  0.21727  1
 O  O2  1  0.50000  0.00000  0.78273  1
 O  O3  1  0.00000  0.50000  0.21727  1
 O  O4  1  0.00000  0.50000  0.78273  1
 O  O5  1  0.50000  0.50000  0.50000  1
 Rb  Rb1  1  0.00000  0.00000  0.00000  1
 Rb  Rb2  1  0.00000  0.00000  0.50000  1
 Yb  Yb1  1  0.50000  0.50000  0.25887  1
 Yb  Yb2  1  0.50000  0.50000  0.74113  1
