CIF file written using JARVIS-Tools package.
data_Ce
_symmetry_space_group_name_H-M  'Cmcm'
_cell_length_a       3.16905
_cell_length_b       3.48134
_cell_length_c       5.25986
_cell_angle_alpha    90
_cell_angle_beta     90
_cell_angle_gamma    117.075

_symmetry_Int_Tables_number  63
_chemical_formula_structural  Ce
_chemical_formula_sum  Ce2
_cell_volume  51.67055519138046
_cell_formula_units_Z  2
loop_
  _symmetry_equiv_pos_site_id
 _symmetry_equiv_pos_as_xyz
 1  'x, y, z'
loop_
 _atom_site_type_symbol
 _atom_site_label
 _atom_site_symmetry_multiplicity
 _atom_site_fract_x
 _atom_site_fract_y
 _atom_site_fract_z
 _atom_site_fract_occupancy
 Ce  Ce1  1  0.09949  0.19898  0.75000  1
 Ce  Ce2  1  0.90051  0.80102  0.25000  1
