CIF file written using JARVIS-Tools package.
data_BaCo2P2O8
_symmetry_space_group_name_H-M  'R-3'
_cell_length_a       4.81445
_cell_length_b       4.81795
_cell_length_c       8.35264
_cell_angle_alpha    90.0174
_cell_angle_beta     106.727
_cell_angle_gamma    119.982

_symmetry_Int_Tables_number  148
_chemical_formula_structural  BaCo2P2O8
_chemical_formula_sum  BaCo2P2O8
_cell_volume  158.27354469255272
_cell_formula_units_Z  1
loop_
  _symmetry_equiv_pos_site_id
 _symmetry_equiv_pos_as_xyz
 1  'x, y, z'
loop_
 _atom_site_type_symbol
 _atom_site_label
 _atom_site_symmetry_multiplicity
 _atom_site_fract_x
 _atom_site_fract_y
 _atom_site_fract_z
 _atom_site_fract_occupancy
 Ba  Ba1  1  0.00000  0.00000  0.00000  1
 Co  Co1  1  0.33652  0.16785  0.50532  1
 Co  Co2  1  0.66348  0.83215  0.49468  1
 O  O1  1  0.90223  0.14401  0.34063  1
 O  O2  1  0.27854  0.63920  0.91778  1
 O  O3  1  0.72146  0.36080  0.08222  1
 O  O4  1  0.58306  0.43895  0.34106  1
 O  O5  1  0.09777  0.85599  0.65937  1
 O  O6  1  0.80297  0.24196  0.65937  1
 O  O7  1  0.19703  0.75804  0.34063  1
 O  O8  1  0.41694  0.56105  0.65894  1
 P  P1  1  0.14937  0.57467  0.72428  1
 P  P2  1  0.85063  0.42533  0.27572  1
