CIF file written using JARVIS-Tools package.
data_BaNb2O6
_symmetry_space_group_name_H-M  'Pmma'
_cell_length_a       3.9795
_cell_length_b       6.22736
_cell_length_c       10.6281
_cell_angle_alpha    90
_cell_angle_beta     90
_cell_angle_gamma    90

_symmetry_Int_Tables_number  51
_chemical_formula_structural  BaNb2O6
_chemical_formula_sum  Ba2Nb4O2
_cell_volume  263.3820610504598
_cell_formula_units_Z  2
loop_
  _symmetry_equiv_pos_site_id
 _symmetry_equiv_pos_as_xyz
 1  'x, y, z'
loop_
 _atom_site_type_symbol
 _atom_site_label
 _atom_site_symmetry_multiplicity
 _atom_site_fract_x
 _atom_site_fract_y
 _atom_site_fract_z
 _atom_site_fract_occupancy
 Ba  Ba1  1  0.00000  0.31520  0.75000  1
 Ba  Ba2  1  0.00000  0.68480  0.25000  1
 Nb  Nb1  1  0.50000  0.21449  0.07829  1
 Nb  Nb2  1  0.50000  0.21449  0.42171  1
 Nb  Nb3  1  0.50000  0.78551  0.57829  1
 Nb  Nb4  1  0.50000  0.78551  0.92171  1
 O  O1  1  0.00000  0.21783  0.41330  1
 O  O2  1  0.50000  0.89437  0.39164  1
 O  O3  1  0.50000  0.64981  0.75000  1
 O  O4  1  0.00000  0.21783  0.08670  1
 O  O5  1  0.50000  0.89437  0.10836  1
 O  O6  1  0.50000  0.35019  0.25000  1
 O  O7  1  0.00000  0.78217  0.91330  1
 O  O8  1  0.50000  0.10563  0.60836  1
 O  O9  1  0.50000  0.50000  0.00000  1
 O  O10  1  0.50000  0.10563  0.89164  1
 O  O11  1  0.00000  0.78217  0.58670  1
 O  O12  1  0.50000  0.50000  0.50000  1
