CIF file written using JARVIS-Tools package.
data_Rb
_symmetry_space_group_name_H-M  'Im-3m'
_cell_length_a       7.83185
_cell_length_b       12.4194
_cell_length_c       12.4235
_cell_angle_alpha    36.7759
_cell_angle_beta     71.6061
_cell_angle_gamma    71.654

_symmetry_Int_Tables_number  229
_chemical_formula_structural  Rb
_chemical_formula_sum  Rb8
_cell_volume  682.3882679568915
_cell_formula_units_Z  8
loop_
  _symmetry_equiv_pos_site_id
 _symmetry_equiv_pos_as_xyz
 1  'x, y, z'
loop_
 _atom_site_type_symbol
 _atom_site_label
 _atom_site_symmetry_multiplicity
 _atom_site_fract_x
 _atom_site_fract_y
 _atom_site_fract_z
 _atom_site_fract_occupancy
 Rb  Rb1  1  0.55904  0.68634  0.18845  1
 Rb  Rb2  1  0.93391  0.81131  0.31352  1
 Rb  Rb3  1  0.68385  0.06103  0.56372  1
 Rb  Rb4  1  0.43396  0.31161  0.81317  1
 Rb  Rb5  1  0.30872  0.93690  0.43798  1
 Rb  Rb6  1  0.80915  0.43607  0.93866  1
 Rb  Rb7  1  0.05882  0.18665  0.68813  1
 Rb  Rb8  1  0.18406  0.56186  0.06295  1
