CIF file written using JARVIS-Tools package.
data_NdSn2
_symmetry_space_group_name_H-M  'Cmmm'
_cell_length_a       4.50505
_cell_length_b       4.58575
_cell_length_c       8.47237
_cell_angle_alpha    90
_cell_angle_beta     105.418
_cell_angle_gamma    90

_symmetry_Int_Tables_number  65
_chemical_formula_structural  NdSn2
_chemical_formula_sum  Nd2Sn4
_cell_volume  168.73170146315056
_cell_formula_units_Z  2
loop_
  _symmetry_equiv_pos_site_id
 _symmetry_equiv_pos_as_xyz
 1  'x, y, z'
loop_
 _atom_site_type_symbol
 _atom_site_label
 _atom_site_symmetry_multiplicity
 _atom_site_fract_x
 _atom_site_fract_y
 _atom_site_fract_z
 _atom_site_fract_occupancy
 Nd  Nd1  1  0.85579  0.00000  0.71157  1
 Nd  Nd2  1  0.14421  0.00000  0.28843  1
 Sn  Sn1  1  0.50000  0.00000  -0.00000  1
 Sn  Sn2  1  0.00000  0.50000  0.00000  1
 Sn  Sn3  1  0.68670  0.50000  0.37340  1
 Sn  Sn4  1  0.31330  0.50000  0.62660  1
