CIF file written using JARVIS-Tools package.
data_RbCaCl3
_symmetry_space_group_name_H-M  'R-3c'
_cell_length_a       7.43596
_cell_length_b       7.43596
_cell_length_c       7.43596
_cell_angle_alpha    61.3779
_cell_angle_beta     61.3779
_cell_angle_gamma    61.3779

_symmetry_Int_Tables_number  167
_chemical_formula_structural  RbCaCl3
_chemical_formula_sum  Rb2Ca2Cl6
_cell_volume  299.7345872443866
_cell_formula_units_Z  2
loop_
  _symmetry_equiv_pos_site_id
 _symmetry_equiv_pos_as_xyz
 1  'x, y, z'
loop_
 _atom_site_type_symbol
 _atom_site_label
 _atom_site_symmetry_multiplicity
 _atom_site_fract_x
 _atom_site_fract_y
 _atom_site_fract_z
 _atom_site_fract_occupancy
 Ca  Ca1  1  0.00571  0.00571  0.00571  1
 Ca  Ca2  1  0.50571  0.50571  0.50571  1
 Cl  Cl1  1  0.25564  0.82152  0.68987  1
 Cl  Cl2  1  0.82152  0.68987  0.25564  1
 Cl  Cl3  1  0.68987  0.25564  0.82152  1
 Cl  Cl4  1  0.18987  0.32152  0.75564  1
 Cl  Cl5  1  0.75564  0.18987  0.32152  1
 Cl  Cl6  1  0.32152  0.75564  0.18987  1
 Rb  Rb1  1  0.25576  0.25576  0.25576  1
 Rb  Rb2  1  0.75576  0.75576  0.75576  1
