CIF file written using JARVIS-Tools package.
data_Na2MgAlF7
_symmetry_space_group_name_H-M  'Ima2'
_cell_length_a       7.09347
_cell_length_b       7.17275
_cell_length_c       7.17275
_cell_angle_alpha    61.7026
_cell_angle_beta     60.3649
_cell_angle_gamma    60.3649

_symmetry_Int_Tables_number  46
_chemical_formula_structural  Na2MgAlF7
_chemical_formula_sum  Na4Mg2Al2F4
_cell_volume  262.68161254070645
_cell_formula_units_Z  2
loop_
  _symmetry_equiv_pos_site_id
 _symmetry_equiv_pos_as_xyz
 1  'x, y, z'
loop_
 _atom_site_type_symbol
 _atom_site_label
 _atom_site_symmetry_multiplicity
 _atom_site_fract_x
 _atom_site_fract_y
 _atom_site_fract_z
 _atom_site_fract_occupancy
 Al  Al1  1  0.91131  0.50000  0.50000  1
 Al  Al2  1  0.41131  -0.00000  0.00000  1
 F  F1  1  0.49831  0.69042  0.13561  1
 F  F2  1  0.98479  0.68153  0.54412  1
 F  F3  1  0.71044  0.95588  0.81847  1
 F  F4  1  0.48479  0.04412  0.18153  1
 F  F5  1  0.83782  0.31839  0.45604  1
 F  F6  1  0.61226  0.68161  0.54396  1
 F  F7  1  0.33782  0.95604  0.81839  1
 F  F8  1  0.11226  0.04396  0.18161  1
 F  F9  1  0.16131  0.88635  0.61365  1
 F  F10  1  0.32433  0.30958  0.86439  1
 F  F11  1  0.66131  0.11365  0.38635  1
 F  F12  1  0.82433  0.36439  0.80958  1
 F  F13  1  0.99831  0.63561  0.19042  1
 F  F14  1  0.21044  0.31847  0.45588  1
 Mg  Mg1  1  0.91132  0.00002  0.49998  1
 Mg  Mg2  1  0.41132  0.99998  0.50002  1
 Na  Na1  1  0.41143  0.49928  0.00072  1
 Na  Na2  1  0.91143  0.50072  0.99928  1
 Na  Na3  1  0.91159  0.00000  -0.00000  1
 Na  Na4  1  0.41159  0.50000  0.50000  1
