CIF file written using JARVIS-Tools package.
data_Tm5Sb3
_symmetry_space_group_name_H-M  'P6_3/mcm'
_cell_length_a       8.83774
_cell_length_b       8.83774
_cell_length_c       6.17707
_cell_angle_alpha    90
_cell_angle_beta     90
_cell_angle_gamma    120

_symmetry_Int_Tables_number  193
_chemical_formula_structural  Tm5Sb3
_chemical_formula_sum  Tm0Sb6
_cell_volume  417.8266320781609
_cell_formula_units_Z  2
loop_
  _symmetry_equiv_pos_site_id
 _symmetry_equiv_pos_as_xyz
 1  'x, y, z'
loop_
 _atom_site_type_symbol
 _atom_site_label
 _atom_site_symmetry_multiplicity
 _atom_site_fract_x
 _atom_site_fract_y
 _atom_site_fract_z
 _atom_site_fract_occupancy
 Sb  Sb1  1  0.61156  0.61156  0.25000  1
 Sb  Sb2  1  0.38844  0.38844  0.75000  1
 Sb  Sb3  1  0.38844  0.00000  0.25000  1
 Sb  Sb4  1  0.00000  0.38844  0.25000  1
 Sb  Sb5  1  -0.00000  0.61156  0.75000  1
 Sb  Sb6  1  0.61156  -0.00000  0.75000  1
 Tm  Tm1  1  0.66667  0.33333  0.00000  1
 Tm  Tm2  1  0.33333  0.66667  0.50000  1
 Tm  Tm3  1  0.33333  0.66667  0.00000  1
 Tm  Tm4  1  0.66667  0.33333  0.50000  1
 Tm  Tm5  1  0.24487  0.24487  0.25000  1
 Tm  Tm6  1  0.75513  0.75513  0.75000  1
 Tm  Tm7  1  0.75513  -0.00000  0.25000  1
 Tm  Tm8  1  -0.00000  0.75513  0.25000  1
 Tm  Tm9  1  0.00000  0.24487  0.75000  1
 Tm  Tm10  1  0.24487  0.00000  0.75000  1
