CIF file written using JARVIS-Tools package.
data_Nd2Sb
_symmetry_space_group_name_H-M  'I4/mmm'
_cell_length_a       4.55753
_cell_length_b       4.55753
_cell_length_c       9.46247
_cell_angle_alpha    103.935
_cell_angle_beta     103.935
_cell_angle_gamma    90

_symmetry_Int_Tables_number  139
_chemical_formula_structural  Nd2Sb
_chemical_formula_sum  Nd4Sb2
_cell_volume  184.79613078338534
_cell_formula_units_Z  2
loop_
  _symmetry_equiv_pos_site_id
 _symmetry_equiv_pos_as_xyz
 1  'x, y, z'
loop_
 _atom_site_type_symbol
 _atom_site_label
 _atom_site_symmetry_multiplicity
 _atom_site_fract_x
 _atom_site_fract_y
 _atom_site_fract_z
 _atom_site_fract_occupancy
 Nd  Nd1  1  0.17939  0.17939  0.35878  1
 Nd  Nd2  1  0.82061  0.82061  0.64122  1
 Nd  Nd3  1  -0.00000  0.50000  0.00000  1
 Nd  Nd4  1  0.50000  0.00000  0.00000  1
 Sb  Sb1  1  0.63872  0.63872  0.27744  1
 Sb  Sb2  1  0.36128  0.36128  0.72256  1
