CIF file written using JARVIS-Tools package.
data_AlHO2
_symmetry_space_group_name_H-M  'Pnma'
_cell_length_a       2.87428
_cell_length_b       4.92056
_cell_length_c       8.47083
_cell_angle_alpha    90
_cell_angle_beta     90
_cell_angle_gamma    90

_symmetry_Int_Tables_number  62
_chemical_formula_structural  AlHO2
_chemical_formula_sum  Al4H4O8
_cell_volume  119.80343400708429
_cell_formula_units_Z  4
loop_
  _symmetry_equiv_pos_site_id
 _symmetry_equiv_pos_as_xyz
 1  'x, y, z'
loop_
 _atom_site_type_symbol
 _atom_site_label
 _atom_site_symmetry_multiplicity
 _atom_site_fract_x
 _atom_site_fract_y
 _atom_site_fract_z
 _atom_site_fract_occupancy
 Al  Al1  1  0.25000  0.38750  0.64716  1
 Al  Al2  1  0.25000  0.11250  0.14716  1
 Al  Al3  1  0.75000  0.61250  0.35284  1
 Al  Al4  1  0.75000  0.88750  0.85284  1
 H  H1  1  0.75000  0.36667  0.92308  1
 H  H2  1  0.75000  0.13333  0.42308  1
 H  H3  1  0.25000  0.63333  0.07692  1
 H  H4  1  0.25000  0.86667  0.57692  1
 O  O1  1  0.75000  0.20947  0.00083  1
 O  O2  1  0.75000  0.29053  0.50083  1
 O  O3  1  0.25000  0.79053  0.99917  1
 O  O4  1  0.25000  0.70947  0.49917  1
 O  O5  1  0.75000  0.95854  0.26066  1
 O  O6  1  0.75000  0.54146  0.76066  1
 O  O7  1  0.25000  0.04146  0.73934  1
 O  O8  1  0.25000  0.45854  0.23934  1
