CIF file written using JARVIS-Tools package.
data_KBeH3
_symmetry_space_group_name_H-M  'P2_1/m'
_cell_length_a       6.73938
_cell_length_b       5.42628
_cell_length_c       9.01732
_cell_angle_alpha    90
_cell_angle_beta     105.978
_cell_angle_gamma    90

_symmetry_Int_Tables_number  11
_chemical_formula_structural  KBeH3
_chemical_formula_sum  K4Be4H2
_cell_volume  317.02173475145725
_cell_formula_units_Z  4
loop_
  _symmetry_equiv_pos_site_id
 _symmetry_equiv_pos_as_xyz
 1  'x, y, z'
loop_
 _atom_site_type_symbol
 _atom_site_label
 _atom_site_symmetry_multiplicity
 _atom_site_fract_x
 _atom_site_fract_y
 _atom_site_fract_z
 _atom_site_fract_occupancy
 Be  Be1  1  0.75262  0.25005  0.00049  1
 Be  Be2  1  0.24738  0.75005  0.49951  1
 Be  Be3  1  0.75262  0.24995  0.50049  1
 Be  Be4  1  0.24738  0.74995  0.99951  1
 H  H1  1  0.37378  0.74987  0.65215  1
 H  H2  1  0.82654  0.02670  0.07252  1
 H  H3  1  0.17366  0.52643  0.92764  1
 H  H4  1  0.37378  0.75013  0.15215  1
 H  H5  1  0.62622  0.25013  0.34785  1
 H  H6  1  0.82634  0.47357  0.07236  1
 H  H7  1  0.17346  0.52670  0.42748  1
 H  H8  1  0.17346  0.97330  0.92748  1
 H  H9  1  0.82634  0.02643  0.57236  1
 H  H10  1  0.17366  0.97357  0.42764  1
 H  H11  1  0.62622  0.24987  0.84785  1
 H  H12  1  0.82654  0.47330  0.57252  1
 K  K1  1  0.76975  0.75003  0.79890  1
 K  K2  1  0.23025  0.25003  0.70110  1
 K  K3  1  0.76975  0.74997  0.29890  1
 K  K4  1  0.23025  0.24997  0.20110  1
