CIF file written using JARVIS-Tools package.
data_W3O8
_symmetry_space_group_name_H-M  'Cmmm'
_cell_length_a       3.81853
_cell_length_b       6.13374
_cell_length_c       6.13373
_cell_angle_alpha    116.246
_cell_angle_beta     90
_cell_angle_gamma    90

_symmetry_Int_Tables_number  65
_chemical_formula_structural  W3O8
_chemical_formula_sum  W3O8
_cell_volume  128.8526078510576
_cell_formula_units_Z  1
loop_
  _symmetry_equiv_pos_site_id
 _symmetry_equiv_pos_as_xyz
 1  'x, y, z'
loop_
 _atom_site_type_symbol
 _atom_site_label
 _atom_site_symmetry_multiplicity
 _atom_site_fract_x
 _atom_site_fract_y
 _atom_site_fract_z
 _atom_site_fract_occupancy
 O  O1  1  0.00000  0.96048  0.66355  1
 O  O2  1  0.00000  0.03952  0.33645  1
 O  O3  1  0.00000  0.66355  0.96048  1
 O  O4  1  0.00000  0.50000  0.50000  1
 O  O5  1  0.50000  0.00000  0.00000  1
 O  O6  1  0.00000  0.33645  0.03952  1
 O  O7  1  0.50000  0.69048  0.30952  1
 O  O8  1  0.50000  0.30952  0.69048  1
 W  W1  1  0.00000  0.68465  0.31535  1
 W  W2  1  0.00000  0.31535  0.68465  1
 W  W3  1  0.00000  0.00000  0.00000  1
