CIF file written using JARVIS-Tools package.
data_Dy2Ti3Si4
_symmetry_space_group_name_H-M  'P4_12_12'
_cell_length_a       7.07034
_cell_length_b       7.07034
_cell_length_c       12.9831
_cell_angle_alpha    90
_cell_angle_beta     90
_cell_angle_gamma    90

_symmetry_Int_Tables_number  92
_chemical_formula_structural  Dy2Ti3Si4
_chemical_formula_sum  Dy8Ti2Si6
_cell_volume  649.0200426742048
_cell_formula_units_Z  4
loop_
  _symmetry_equiv_pos_site_id
 _symmetry_equiv_pos_as_xyz
 1  'x, y, z'
loop_
 _atom_site_type_symbol
 _atom_site_label
 _atom_site_symmetry_multiplicity
 _atom_site_fract_x
 _atom_site_fract_y
 _atom_site_fract_z
 _atom_site_fract_occupancy
 Dy  Dy1  1  0.99813  0.65986  0.03306  1
 Dy  Dy2  1  0.00187  0.34014  0.53306  1
 Dy  Dy3  1  0.65986  0.99813  0.96694  1
 Dy  Dy4  1  0.15986  0.50187  0.78306  1
 Dy  Dy5  1  0.84014  0.49813  0.28306  1
 Dy  Dy6  1  0.50187  0.15986  0.21694  1
 Dy  Dy7  1  0.49813  0.84014  0.71694  1
 Dy  Dy8  1  0.34014  0.00187  0.46694  1
 Si  Si1  1  0.70216  0.37018  0.06641  1
 Si  Si2  1  0.29784  0.62982  0.56641  1
 Si  Si3  1  0.79784  0.87018  0.18359  1
 Si  Si4  1  0.29074  0.95478  0.06501  1
 Si  Si5  1  0.79074  0.54522  0.68499  1
 Si  Si6  1  0.95478  0.29074  0.93499  1
 Si  Si7  1  0.20926  0.45478  0.18499  1
 Si  Si8  1  0.70926  0.04522  0.56501  1
 Si  Si9  1  0.62982  0.29784  0.43359  1
 Si  Si10  1  0.04522  0.70926  0.43499  1
 Si  Si11  1  0.20216  0.12982  0.68359  1
 Si  Si12  1  0.45478  0.20926  0.81501  1
 Si  Si13  1  0.37018  0.70216  0.93359  1
 Si  Si14  1  0.87018  0.79784  0.81641  1
 Si  Si15  1  0.54522  0.79074  0.31501  1
 Si  Si16  1  0.12982  0.20216  0.31641  1
 Ti  Ti1  1  0.15332  0.00760  0.87612  1
 Ti  Ti2  1  0.34668  0.50760  0.37388  1
 Ti  Ti3  1  0.00760  0.15332  0.12388  1
 Ti  Ti4  1  0.99240  0.84668  0.62388  1
 Ti  Ti5  1  0.50760  0.34668  0.62612  1
 Ti  Ti6  1  0.32772  0.32772  0.00000  1
 Ti  Ti7  1  0.67228  0.67228  0.50000  1
 Ti  Ti8  1  0.82772  0.17228  0.75000  1
 Ti  Ti9  1  0.17228  0.82772  0.25000  1
 Ti  Ti10  1  0.49240  0.65332  0.12612  1
 Ti  Ti11  1  0.65332  0.49240  0.87388  1
 Ti  Ti12  1  0.84668  0.99240  0.37612  1
