CIF file written using JARVIS-Tools package.
data_AgBiO2
_symmetry_space_group_name_H-M  'C2/m'
_cell_length_a       3.59367
_cell_length_b       6.56183
_cell_length_c       6.62082
_cell_angle_alpha    97.9721
_cell_angle_beta     89.9999
_cell_angle_gamma    105.892

_symmetry_Int_Tables_number  12
_chemical_formula_structural  AgBiO2
_chemical_formula_sum  Ag2Bi2O4
_cell_volume  148.5887899307315
_cell_formula_units_Z  2
loop_
  _symmetry_equiv_pos_site_id
 _symmetry_equiv_pos_as_xyz
 1  'x, y, z'
loop_
 _atom_site_type_symbol
 _atom_site_label
 _atom_site_symmetry_multiplicity
 _atom_site_fract_x
 _atom_site_fract_y
 _atom_site_fract_z
 _atom_site_fract_occupancy
 Ag  Ag1  1  0.00000  0.00000  0.00000  1
 Ag  Ag2  1  0.50000  0.00000  0.50000  1
 Bi  Bi1  1  0.24147  0.48294  0.74112  1
 Bi  Bi2  1  0.75853  0.51706  0.25888  1
 O  O1  1  0.66310  0.32620  0.51436  1
 O  O2  1  0.33690  0.67380  0.48564  1
 O  O3  1  0.16181  0.32363  0.11102  1
 O  O4  1  0.83819  0.67637  0.88898  1
