CIF file written using JARVIS-Tools package.
data_Be
_symmetry_space_group_name_H-M  'Im-3m'
_cell_length_a       2.16542
_cell_length_b       2.16542
_cell_length_c       2.16543
_cell_angle_alpha    109.471
_cell_angle_beta     109.471
_cell_angle_gamma    109.471

_symmetry_Int_Tables_number  229
_chemical_formula_structural  Be
_chemical_formula_sum  Be
_cell_volume  7.816443839242159
_cell_formula_units_Z  1
loop_
  _symmetry_equiv_pos_site_id
 _symmetry_equiv_pos_as_xyz
 1  'x, y, z'
loop_
 _atom_site_type_symbol
 _atom_site_label
 _atom_site_symmetry_multiplicity
 _atom_site_fract_x
 _atom_site_fract_y
 _atom_site_fract_z
 _atom_site_fract_occupancy
 Be  Be1  1  0.00000  0.00000  0.00000  1
