CIF file written using JARVIS-Tools package.
data_Ti3Te4
_symmetry_space_group_name_H-M  'C2/m'
_cell_length_a       3.83889
_cell_length_b       7.02832
_cell_length_c       7.48184
_cell_angle_alpha    117.679
_cell_angle_beta     104.865
_cell_angle_gamma    90

_symmetry_Int_Tables_number  12
_chemical_formula_structural  Ti3Te4
_chemical_formula_sum  Ti3Te4
_cell_volume  171.10045743415506
_cell_formula_units_Z  1
loop_
  _symmetry_equiv_pos_site_id
 _symmetry_equiv_pos_as_xyz
 1  'x, y, z'
loop_
 _atom_site_type_symbol
 _atom_site_label
 _atom_site_symmetry_multiplicity
 _atom_site_fract_x
 _atom_site_fract_y
 _atom_site_fract_z
 _atom_site_fract_occupancy
 Te  Te1  1  0.63372  0.96024  0.26743  1
 Te  Te2  1  0.36628  0.03976  0.73257  1
 Te  Te3  1  0.10868  0.45062  0.21736  1
 Te  Te4  1  0.89132  0.54938  0.78264  1
 Ti  Ti1  1  0.00000  0.00000  0.00000  1
 Ti  Ti2  1  0.75215  0.70667  0.50430  1
 Ti  Ti3  1  0.24785  0.29333  0.49570  1
