CIF file written using JARVIS-Tools package.
data_TeMoWSe2S
_symmetry_space_group_name_H-M  'P3m1'
_cell_length_a       3.35798
_cell_length_b       3.35797
_cell_length_c       37.6893
_cell_angle_alpha    90.0023
_cell_angle_beta     90
_cell_angle_gamma    120

_symmetry_Int_Tables_number  156
_chemical_formula_structural  TeMoWSe2S
_chemical_formula_sum  Te2Mo2W2Se4S2
_cell_volume  368.0471974083582
_cell_formula_units_Z  2
loop_
  _symmetry_equiv_pos_site_id
 _symmetry_equiv_pos_as_xyz
 1  'x, y, z'
loop_
 _atom_site_type_symbol
 _atom_site_label
 _atom_site_symmetry_multiplicity
 _atom_site_fract_x
 _atom_site_fract_y
 _atom_site_fract_z
 _atom_site_fract_occupancy
 Mo  Mo1  1  0.33332  0.66664  0.09396  1
 Mo  Mo2  1  0.66670  0.33339  0.65759  1
 S  S1  1  0.66664  0.33329  0.42911  1
 S  S2  1  0.66664  0.33328  0.51020  1
 Se  Se1  1  0.33336  0.66672  0.32633  1
 Se  Se2  1  0.66664  0.33328  0.05004  1
 Se  Se3  1  0.66664  0.33329  0.13814  1
 Se  Se4  1  0.33336  0.66671  0.23732  1
 Te  Te1  1  0.33336  0.66671  0.70767  1
 Te  Te2  1  0.33335  0.66671  0.60700  1
 W  W1  1  0.33331  0.66663  0.46959  1
 W  W2  1  0.66668  0.33336  0.28180  1
