CIF file written using JARVIS-Tools package.
data_TeMoWSeS2
_symmetry_space_group_name_H-M  'P3m1'
_cell_length_a       3.31448
_cell_length_b       3.31442
_cell_length_c       37.499
_cell_angle_alpha    89.9997
_cell_angle_beta     90
_cell_angle_gamma    120.001

_symmetry_Int_Tables_number  156
_chemical_formula_structural  TeMoWSeS2
_chemical_formula_sum  Te2Mo2W2Se2S4
_cell_volume  356.75518320886164
_cell_formula_units_Z  2
loop_
  _symmetry_equiv_pos_site_id
 _symmetry_equiv_pos_as_xyz
 1  'x, y, z'
loop_
 _atom_site_type_symbol
 _atom_site_label
 _atom_site_symmetry_multiplicity
 _atom_site_fract_x
 _atom_site_fract_y
 _atom_site_fract_z
 _atom_site_fract_occupancy
 Mo  Mo1  1  0.33330  0.66660  0.09392  1
 Mo  Mo2  1  0.33332  0.66663  0.46972  1
 S  S1  1  0.66665  0.33330  0.05326  1
 S  S2  1  0.66664  0.33328  0.42894  1
 S  S3  1  0.66665  0.33329  0.13464  1
 S  S4  1  0.66664  0.33328  0.51045  1
 Se  Se1  1  0.33335  0.66670  0.70241  1
 Se  Se2  1  0.33336  0.66672  0.61250  1
 Te  Te1  1  0.33335  0.66671  0.33323  1
 Te  Te2  1  0.33336  0.66672  0.23037  1
 W  W1  1  0.66670  0.33339  0.28180  1
 W  W2  1  0.66669  0.33338  0.65749  1
