CIF file written using JARVIS-Tools package.
data_Ca6Al2NF
_symmetry_space_group_name_H-M  'Fm-3m'
_cell_length_a       6.9226
_cell_length_b       6.92259
_cell_length_c       6.92259
_cell_angle_alpha    60.0001
_cell_angle_beta     60.0002
_cell_angle_gamma    60

_symmetry_Int_Tables_number  225
_chemical_formula_structural  Ca6Al2NF
_chemical_formula_sum  Ca6Al2NF
_cell_volume  234.58063145164962
_cell_formula_units_Z  1
loop_
  _symmetry_equiv_pos_site_id
 _symmetry_equiv_pos_as_xyz
 1  'x, y, z'
loop_
 _atom_site_type_symbol
 _atom_site_label
 _atom_site_symmetry_multiplicity
 _atom_site_fract_x
 _atom_site_fract_y
 _atom_site_fract_z
 _atom_site_fract_occupancy
 Al  Al1  1  0.25000  0.25000  0.25000  1
 Al  Al2  1  0.75000  0.75000  0.75000  1
 Ca  Ca1  1  0.24134  0.75866  0.75866  1
 Ca  Ca2  1  0.24134  0.75866  0.24134  1
 Ca  Ca3  1  0.75866  0.24134  0.75866  1
 Ca  Ca4  1  0.75866  0.75866  0.24134  1
 Ca  Ca5  1  0.24134  0.24134  0.75866  1
 Ca  Ca6  1  0.75866  0.24134  0.24134  1
 F  F1  1  0.50000  0.50000  0.50000  1
 N  N1  1  0.00000  0.00000  0.00000  1
