CIF file written using JARVIS-Tools package.
data_Sm5Mg
_symmetry_space_group_name_H-M  'R32'
_cell_length_a       6.18532
_cell_length_b       6.18532
_cell_length_c       6.65223
_cell_angle_alpha    117.704
_cell_angle_beta     62.2959
_cell_angle_gamma    120

_symmetry_Int_Tables_number  155
_chemical_formula_structural  Sm5Mg
_chemical_formula_sum  Sm5Mg
_cell_volume  185.95452968932415
_cell_formula_units_Z  1
loop_
  _symmetry_equiv_pos_site_id
 _symmetry_equiv_pos_as_xyz
 1  'x, y, z'
loop_
 _atom_site_type_symbol
 _atom_site_label
 _atom_site_symmetry_multiplicity
 _atom_site_fract_x
 _atom_site_fract_y
 _atom_site_fract_z
 _atom_site_fract_occupancy
 Mg  Mg1  1  0.83333  0.50000  0.50000  1
 Sm  Sm1  1  0.68945  0.35612  -0.00000  1
 Sm  Sm2  1  0.97721  -0.00000  -0.00000  1
 Sm  Sm3  1  0.33333  0.64388  0.00000  1
 Sm  Sm4  1  0.49610  0.83723  0.51169  1
 Sm  Sm5  1  0.17056  0.16277  0.48831  1
