CIF file written using JARVIS-Tools package.
data_RbTaGeS5
_symmetry_space_group_name_H-M  'P-1'
_cell_length_a       7.03468
_cell_length_b       7.01247
_cell_length_c       8.99137
_cell_angle_alpha    71.1356
_cell_angle_beta     78.6774
_cell_angle_gamma    74.9589

_symmetry_Int_Tables_number  2
_chemical_formula_structural  RbTaGeS5
_chemical_formula_sum  Rb2Ta2Ge2S0
_cell_volume  402.2656209239869
_cell_formula_units_Z  2
loop_
  _symmetry_equiv_pos_site_id
 _symmetry_equiv_pos_as_xyz
 1  'x, y, z'
loop_
 _atom_site_type_symbol
 _atom_site_label
 _atom_site_symmetry_multiplicity
 _atom_site_fract_x
 _atom_site_fract_y
 _atom_site_fract_z
 _atom_site_fract_occupancy
 Ge  Ge1  1  0.97912  0.70944  0.37854  1
 Ge  Ge2  1  0.02088  0.29056  0.62146  1
 Rb  Rb1  1  0.58263  0.37407  0.31460  1
 Rb  Rb2  1  0.41737  0.62593  0.68540  1
 S  S1  1  0.07021  0.74819  -0.00013  1
 S  S2  1  0.43568  0.23859  0.02958  1
 S  S3  1  0.69033  0.88228  0.29376  1
 S  S4  1  0.22698  0.87394  0.29884  1
 S  S5  1  0.06618  0.38442  0.35110  1
 S  S6  1  0.93382  0.61558  0.64890  1
 S  S7  1  0.77302  0.12606  0.70116  1
 S  S8  1  0.30967  0.11772  0.70624  1
 S  S9  1  0.56432  0.76141  0.97042  1
 S  S10  1  0.92979  0.25181  0.00013  1
 Ta  Ta1  1  0.23959  0.03181  0.00532  1
 Ta  Ta2  1  0.76041  0.96819  0.99468  1
