CIF file written using JARVIS-Tools package.
data_RbCaI3
_symmetry_space_group_name_H-M  'Pm'
_cell_length_a       6.09166
_cell_length_b       6.09104
_cell_length_c       6.09105
_cell_angle_alpha    90.0104
_cell_angle_beta     89.9982
_cell_angle_gamma    90.0119

_symmetry_Int_Tables_number  6
_chemical_formula_structural  RbCaI3
_chemical_formula_sum  RbCaI3
_cell_volume  226.00612657677144
_cell_formula_units_Z  1
loop_
  _symmetry_equiv_pos_site_id
 _symmetry_equiv_pos_as_xyz
 1  'x, y, z'
loop_
 _atom_site_type_symbol
 _atom_site_label
 _atom_site_symmetry_multiplicity
 _atom_site_fract_x
 _atom_site_fract_y
 _atom_site_fract_z
 _atom_site_fract_occupancy
 Ca  Ca1  1  0.51358  0.49980  0.49789  1
 I  I1  1  0.51549  -0.00027  0.49806  1
 I  I2  1  0.01394  0.49942  0.49805  1
 I  I3  1  0.51550  0.49940  0.99793  1
 Rb  Rb1  1  0.00149  0.00165  0.99806  1
