CIF file written using JARVIS-Tools package.
data_BaCd2
_symmetry_space_group_name_H-M  'Imma'
_cell_length_a       5.25939
_cell_length_b       6.59275
_cell_length_c       6.59275
_cell_angle_alpha    78.3235
_cell_angle_beta     66.4921
_cell_angle_gamma    66.492

_symmetry_Int_Tables_number  74
_chemical_formula_structural  BaCd2
_chemical_formula_sum  Ba2Cd4
_cell_volume  191.9711836051286
_cell_formula_units_Z  2
loop_
  _symmetry_equiv_pos_site_id
 _symmetry_equiv_pos_as_xyz
 1  'x, y, z'
loop_
 _atom_site_type_symbol
 _atom_site_label
 _atom_site_symmetry_multiplicity
 _atom_site_fract_x
 _atom_site_fract_y
 _atom_site_fract_z
 _atom_site_fract_occupancy
 Ba  Ba1  1  0.54410  0.70590  0.20590  1
 Ba  Ba2  1  0.45590  0.29410  0.79410  1
 Cd  Cd1  1  0.83523  0.72240  0.60714  1
 Cd  Cd2  1  0.16477  0.27760  0.39286  1
 Cd  Cd3  1  0.83523  0.10714  0.22240  1
 Cd  Cd4  1  0.16477  0.89286  0.77760  1
