data_image0
_chemical_formula_structural       Ag3Gd3Mg3
_chemical_formula_sum              "Ag3 Gd3 Mg3"
_cell_length_a       7.67973
_cell_length_b       7.67973
_cell_length_c       4.2032
_cell_angle_alpha    90
_cell_angle_beta     90
_cell_angle_gamma    120.001

_space_group_name_H-M_alt    "P 1"
_space_group_IT_number       1

loop_
  _space_group_symop_operation_xyz
  'x, y, z'

loop_
  _atom_site_type_symbol
  _atom_site_label
  _atom_site_symmetry_multiplicity
  _atom_site_fract_x
  _atom_site_fract_y
  _atom_site_fract_z
  _atom_site_occupancy
  Ag  Ag1       1.0  0.66700  0.33300  0.00000  1.0000
  Ag  Ag2       1.0  0.33300  0.66700  0.00000  1.0000
  Ag  Ag3       1.0  0.00000  0.00000  0.50000  1.0000
  Gd  Gd1       1.0  0.58600  0.00002  0.50000  1.0000
  Gd  Gd2       1.0  0.41400  0.41400  0.50000  1.0000
  Gd  Gd3       1.0  0.00001  0.58600  0.50000  1.0000
  Mg  Mg1       1.0  0.24400  0.00000  0.00000  1.0000
  Mg  Mg2       1.0  0.00000  0.24400  0.00000  1.0000
  Mg  Mg3       1.0  0.75600  0.75600  0.00000  1.0000
