CIF file written using JARVIS-Tools package.
data_Nd2SnS5
_symmetry_space_group_name_H-M  'Pbam'
_cell_length_a       3.96326
_cell_length_b       7.8511
_cell_length_c       11.3831
_cell_angle_alpha    90
_cell_angle_beta     90
_cell_angle_gamma    90

_symmetry_Int_Tables_number  55
_chemical_formula_structural  Nd2SnS5
_chemical_formula_sum  Nd4Sn2S0
_cell_volume  354.1969260592088
_cell_formula_units_Z  2
loop_
  _symmetry_equiv_pos_site_id
 _symmetry_equiv_pos_as_xyz
 1  'x, y, z'
loop_
 _atom_site_type_symbol
 _atom_site_label
 _atom_site_symmetry_multiplicity
 _atom_site_fract_x
 _atom_site_fract_y
 _atom_site_fract_z
 _atom_site_fract_occupancy
 Nd  Nd1  1  0.50000  0.44440  0.17106  1
 Nd  Nd2  1  0.50000  0.05560  0.67106  1
 Nd  Nd3  1  0.50000  0.94440  0.32894  1
 Nd  Nd4  1  0.50000  0.55560  0.82894  1
 S  S1  1  0.50000  0.18309  0.91881  1
 S  S2  1  0.00000  0.65868  0.29988  1
 S  S3  1  0.50000  0.81691  0.08119  1
 S  S4  1  0.00000  0.84132  0.79988  1
 S  S5  1  0.50000  0.31691  0.41881  1
 S  S6  1  0.00000  0.15868  0.20012  1
 S  S7  1  0.00000  0.34132  0.70012  1
 S  S8  1  0.50000  0.68309  0.58119  1
 S  S9  1  0.00000  0.00000  0.50000  1
 S  S10  1  0.00000  0.50000  0.00000  1
 Sn  Sn1  1  0.00000  0.00000  0.00000  1
 Sn  Sn2  1  0.00000  0.50000  0.50000  1
