CIF file written using JARVIS-Tools package.
data_Rb3Tl
_symmetry_space_group_name_H-M  'I4/mmm'
_cell_length_a       7.26058
_cell_length_b       7.26058
_cell_length_c       7.26058
_cell_angle_alpha    130.613
_cell_angle_beta     130.613
_cell_angle_gamma    72.4285

_symmetry_Int_Tables_number  139
_chemical_formula_structural  Rb3Tl
_chemical_formula_sum  Rb3Tl
_cell_volume  215.57843496379286
_cell_formula_units_Z  1
loop_
  _symmetry_equiv_pos_site_id
 _symmetry_equiv_pos_as_xyz
 1  'x, y, z'
loop_
 _atom_site_type_symbol
 _atom_site_label
 _atom_site_symmetry_multiplicity
 _atom_site_fract_x
 _atom_site_fract_y
 _atom_site_fract_z
 _atom_site_fract_occupancy
 Rb  Rb1  1  0.25000  0.75000  0.50000  1
 Rb  Rb2  1  0.75000  0.25000  0.50000  1
 Rb  Rb3  1  0.50000  0.50000  0.00000  1
 Tl  Tl1  1  0.00000  0.00000  0.00000  1
