CIF file written using JARVIS-Tools package.
data_AgSbTe2
_symmetry_space_group_name_H-M  'R-3m'
_cell_length_a       7.40574
_cell_length_b       7.40573
_cell_length_c       7.40574
_cell_angle_alpha    34.2161
_cell_angle_beta     34.2162
_cell_angle_gamma    34.2162

_symmetry_Int_Tables_number  166
_chemical_formula_structural  AgSbTe2
_chemical_formula_sum  AgSbTe2
_cell_volume  114.52067900676114
_cell_formula_units_Z  1
loop_
  _symmetry_equiv_pos_site_id
 _symmetry_equiv_pos_as_xyz
 1  'x, y, z'
loop_
 _atom_site_type_symbol
 _atom_site_label
 _atom_site_symmetry_multiplicity
 _atom_site_fract_x
 _atom_site_fract_y
 _atom_site_fract_z
 _atom_site_fract_occupancy
 Ag  Ag1  1  0.50000  0.50000  0.50000  1
 Sb  Sb1  1  0.00000  0.00000  0.00000  1
 Te  Te1  1  0.75483  0.75483  0.75483  1
 Te  Te2  1  0.24517  0.24517  0.24517  1
