CIF file written using JARVIS-Tools package.
data_Dy2C
_symmetry_space_group_name_H-M  'R-3m'
_cell_length_a       6.43717
_cell_length_b       6.43717
_cell_length_c       6.43717
_cell_angle_alpha    32.2189
_cell_angle_beta     32.2189
_cell_angle_gamma    32.2189

_symmetry_Int_Tables_number  166
_chemical_formula_structural  Dy2C
_chemical_formula_sum  Dy2C
_cell_volume  67.39007417642537
_cell_formula_units_Z  1
loop_
  _symmetry_equiv_pos_site_id
 _symmetry_equiv_pos_as_xyz
 1  'x, y, z'
loop_
 _atom_site_type_symbol
 _atom_site_label
 _atom_site_symmetry_multiplicity
 _atom_site_fract_x
 _atom_site_fract_y
 _atom_site_fract_z
 _atom_site_fract_occupancy
 C  C1  1  0.00000  0.00000  0.00000  1
 Dy  Dy1  1  0.25949  0.25949  0.25949  1
 Dy  Dy2  1  0.74051  0.74051  0.74051  1
