CIF file written using JARVIS-Tools package.
data_SrAlGeH
_symmetry_space_group_name_H-M  'P3m1'
_cell_length_a       4.25819
_cell_length_b       4.25819
_cell_length_c       4.98038
_cell_angle_alpha    90
_cell_angle_beta     90
_cell_angle_gamma    120

_symmetry_Int_Tables_number  156
_chemical_formula_structural  SrAlGeH
_chemical_formula_sum  SrAlGeH
_cell_volume  78.20634246864587
_cell_formula_units_Z  1
loop_
  _symmetry_equiv_pos_site_id
 _symmetry_equiv_pos_as_xyz
 1  'x, y, z'
loop_
 _atom_site_type_symbol
 _atom_site_label
 _atom_site_symmetry_multiplicity
 _atom_site_fract_x
 _atom_site_fract_y
 _atom_site_fract_z
 _atom_site_fract_occupancy
 Al  Al1  1  0.66667  0.33333  0.45767  1
 Ge  Ge1  1  0.33333  0.66667  0.56452  1
 H  H1  1  0.66667  0.33333  0.10660  1
 Sr  Sr1  1  0.00000  0.00000  0.00041  1
