CIF file written using JARVIS-Tools package.
data_ErTi2Ga4
_symmetry_space_group_name_H-M  'I4/mmm'
_cell_length_a       5.46182
_cell_length_b       5.47098
_cell_length_c       5.47098
_cell_angle_alpha    75.572
_cell_angle_beta     60.0554
_cell_angle_gamma    60.0554

_symmetry_Int_Tables_number  139
_chemical_formula_structural  ErTi2Ga4
_chemical_formula_sum  ErTi2Ga4
_cell_volume  122.74764239258403
_cell_formula_units_Z  1
loop_
  _symmetry_equiv_pos_site_id
 _symmetry_equiv_pos_as_xyz
 1  'x, y, z'
loop_
 _atom_site_type_symbol
 _atom_site_label
 _atom_site_symmetry_multiplicity
 _atom_site_fract_x
 _atom_site_fract_y
 _atom_site_fract_z
 _atom_site_fract_occupancy
 Er  Er1  1  0.00000  0.00000  0.00000  1
 Ga  Ga1  1  0.69746  0.60508  0.00000  1
 Ga  Ga2  1  0.30254  0.39492  -0.00000  1
 Ga  Ga3  1  0.69746  0.00000  0.60508  1
 Ga  Ga4  1  0.30254  -0.00000  0.39492  1
 Ti  Ti1  1  0.75000  0.50000  0.50000  1
 Ti  Ti2  1  0.25000  0.50000  0.50000  1
