CIF file written using JARVIS-Tools package.
data_ZrVGe
_symmetry_space_group_name_H-M  'I4/mmm'
_cell_length_a       3.74331
_cell_length_b       3.74332
_cell_length_c       7.75197
_cell_angle_alpha    103.972
_cell_angle_beta     103.972
_cell_angle_gamma    89.9999

_symmetry_Int_Tables_number  139
_chemical_formula_structural  ZrVGe
_chemical_formula_sum  Zr2V2Ge2
_cell_volume  102.0953917556963
_cell_formula_units_Z  2
loop_
  _symmetry_equiv_pos_site_id
 _symmetry_equiv_pos_as_xyz
 1  'x, y, z'
loop_
 _atom_site_type_symbol
 _atom_site_label
 _atom_site_symmetry_multiplicity
 _atom_site_fract_x
 _atom_site_fract_y
 _atom_site_fract_z
 _atom_site_fract_occupancy
 Ge  Ge1  1  0.12744  0.12744  0.25489  1
 Ge  Ge2  1  0.87256  0.87256  0.74511  1
 V  V1  1  0.00000  0.50000  -0.00000  1
 V  V2  1  0.50000  -0.00000  -0.00000  1
 Zr  Zr1  1  0.67652  0.67652  0.35305  1
 Zr  Zr2  1  0.32348  0.32348  0.64695  1
