CIF file written using JARVIS-Tools package.
data_PbAuO2
_symmetry_space_group_name_H-M  'P-1'
_cell_length_a       3.6725
_cell_length_b       5.58225
_cell_length_c       6.89651
_cell_angle_alpha    86.8335
_cell_angle_beta     82.4493
_cell_angle_gamma    88.7967

_symmetry_Int_Tables_number  2
_chemical_formula_structural  PbAuO2
_chemical_formula_sum  Pb2Au2O4
_cell_volume  139.93063860403254
_cell_formula_units_Z  2
loop_
  _symmetry_equiv_pos_site_id
 _symmetry_equiv_pos_as_xyz
 1  'x, y, z'
loop_
 _atom_site_type_symbol
 _atom_site_label
 _atom_site_symmetry_multiplicity
 _atom_site_fract_x
 _atom_site_fract_y
 _atom_site_fract_z
 _atom_site_fract_occupancy
 Au  Au1  1  -0.00000  -0.00000  0.50000  1
 Au  Au2  1  0.00000  0.00000  0.00000  1
 O  O1  1  0.21734  0.31132  0.56405  1
 O  O2  1  0.88678  0.17988  0.24851  1
 O  O3  1  0.11322  0.82012  0.75149  1
 O  O4  1  0.78266  0.68868  0.43595  1
 Pb  Pb1  1  0.32539  0.50746  0.25703  1
 Pb  Pb2  1  0.67461  0.49254  0.74297  1
