CIF file written using JARVIS-Tools package.
data_Sm3Sc
_symmetry_space_group_name_H-M  'P6_3/mmc'
_cell_length_a       7.09302
_cell_length_b       7.09302
_cell_length_c       5.60743
_cell_angle_alpha    90
_cell_angle_beta     90
_cell_angle_gamma    120

_symmetry_Int_Tables_number  194
_chemical_formula_structural  Sm3Sc
_chemical_formula_sum  Sm6Sc2
_cell_volume  244.31871435021358
_cell_formula_units_Z  2
loop_
  _symmetry_equiv_pos_site_id
 _symmetry_equiv_pos_as_xyz
 1  'x, y, z'
loop_
 _atom_site_type_symbol
 _atom_site_label
 _atom_site_symmetry_multiplicity
 _atom_site_fract_x
 _atom_site_fract_y
 _atom_site_fract_z
 _atom_site_fract_occupancy
 Sc  Sc1  1  0.66667  0.33333  0.25000  1
 Sc  Sc2  1  0.33333  0.66667  0.75000  1
 Sm  Sm1  1  0.66027  0.83013  0.25000  1
 Sm  Sm2  1  0.16987  0.83013  0.25000  1
 Sm  Sm3  1  0.16987  0.33973  0.25000  1
 Sm  Sm4  1  0.83013  0.66027  0.75000  1
 Sm  Sm5  1  0.83013  0.16987  0.75000  1
 Sm  Sm6  1  0.33973  0.16987  0.75000  1
