CIF file written using JARVIS-Tools package.
data_Hg3Sb
_symmetry_space_group_name_H-M  'P6_3/mmc'
_cell_length_a       6.44166
_cell_length_b       6.44166
_cell_length_c       5.84666
_cell_angle_alpha    90
_cell_angle_beta     90
_cell_angle_gamma    120

_symmetry_Int_Tables_number  194
_chemical_formula_structural  Hg3Sb
_chemical_formula_sum  Hg6Sb2
_cell_volume  210.10357779891658
_cell_formula_units_Z  2
loop_
  _symmetry_equiv_pos_site_id
 _symmetry_equiv_pos_as_xyz
 1  'x, y, z'
loop_
 _atom_site_type_symbol
 _atom_site_label
 _atom_site_symmetry_multiplicity
 _atom_site_fract_x
 _atom_site_fract_y
 _atom_site_fract_z
 _atom_site_fract_occupancy
 Hg  Hg1  1  0.16720  0.33439  0.25000  1
 Hg  Hg2  1  0.66561  0.83280  0.25000  1
 Hg  Hg3  1  0.16720  0.83280  0.25000  1
 Hg  Hg4  1  0.83280  0.66561  0.75000  1
 Hg  Hg5  1  0.33439  0.16720  0.75000  1
 Hg  Hg6  1  0.83280  0.16720  0.75000  1
 Sb  Sb1  1  0.33333  0.66667  0.75000  1
 Sb  Sb2  1  0.66667  0.33333  0.25000  1
