CIF file written using JARVIS-Tools package.
data_SrWN3
_symmetry_space_group_name_H-M  'P1'
_cell_length_a       3.69251
_cell_length_b       6.3566
_cell_length_c       6.64838
_cell_angle_alpha    109.736
_cell_angle_beta     96.3649
_cell_angle_gamma    91.0531

_symmetry_Int_Tables_number  1
_chemical_formula_structural  SrWN3
_chemical_formula_sum  Sr2W2N6
_cell_volume  145.71775227130868
_cell_formula_units_Z  2
loop_
  _symmetry_equiv_pos_site_id
 _symmetry_equiv_pos_as_xyz
 1  'x, y, z'
loop_
 _atom_site_type_symbol
 _atom_site_label
 _atom_site_symmetry_multiplicity
 _atom_site_fract_x
 _atom_site_fract_y
 _atom_site_fract_z
 _atom_site_fract_occupancy
 N  N1  1  0.03540  0.48800  0.31211  1
 N  N2  1  0.61830  0.75856  0.57086  1
 N  N3  1  0.48431  0.71797  0.03436  1
 N  N4  1  0.91882  0.87292  0.73492  1
 N  N5  1  0.53123  0.24741  0.53521  1
 N  N6  1  0.49132  0.19308  0.05804  1
 Sr  Sr1  1  0.03359  0.91816  0.35732  1
 Sr  Sr2  1  0.97151  0.38550  0.88851  1
 W  W1  1  0.51934  0.41868  0.36753  1
 W  W2  1  0.44458  0.89486  0.87145  1
