CIF file written using JARVIS-Tools package.
data_Sc6NiTe2
_symmetry_space_group_name_H-M  'P-62m'
_cell_length_a       7.746
_cell_length_b       7.746
_cell_length_c       3.73642
_cell_angle_alpha    90
_cell_angle_beta     90
_cell_angle_gamma    120

_symmetry_Int_Tables_number  189
_chemical_formula_structural  Sc6NiTe2
_chemical_formula_sum  Sc6NiTe2
_cell_volume  194.15161126187994
_cell_formula_units_Z  1
loop_
  _symmetry_equiv_pos_site_id
 _symmetry_equiv_pos_as_xyz
 1  'x, y, z'
loop_
 _atom_site_type_symbol
 _atom_site_label
 _atom_site_symmetry_multiplicity
 _atom_site_fract_x
 _atom_site_fract_y
 _atom_site_fract_z
 _atom_site_fract_occupancy
 Ni  Ni1  1  0.00000  0.00000  0.00000  1
 Sc  Sc1  1  0.23722  0.00000  0.50000  1
 Sc  Sc2  1  0.00000  0.23722  0.50000  1
 Sc  Sc3  1  0.76278  0.76278  0.50000  1
 Sc  Sc4  1  0.60798  -0.00000  0.00000  1
 Sc  Sc5  1  -0.00000  0.60798  0.00000  1
 Sc  Sc6  1  0.39202  0.39202  0.00000  1
 Te  Te1  1  0.66667  0.33333  0.50000  1
 Te  Te2  1  0.33333  0.66667  0.50000  1
