CIF file written using JARVIS-Tools package.
data_TlAgCl3
_symmetry_space_group_name_H-M  'Pm-3m'
_cell_length_a       5.06472
_cell_length_b       5.06469
_cell_length_c       5.06476
_cell_angle_alpha    90.0016
_cell_angle_beta     90.0005
_cell_angle_gamma    89.9986

_symmetry_Int_Tables_number  221
_chemical_formula_structural  TlAgCl3
_chemical_formula_sum  TlAgCl3
_cell_volume  129.9175063598157
_cell_formula_units_Z  1
loop_
  _symmetry_equiv_pos_site_id
 _symmetry_equiv_pos_as_xyz
 1  'x, y, z'
loop_
 _atom_site_type_symbol
 _atom_site_label
 _atom_site_symmetry_multiplicity
 _atom_site_fract_x
 _atom_site_fract_y
 _atom_site_fract_z
 _atom_site_fract_occupancy
 Ag  Ag1  1  0.49996  0.50193  0.48802  1
 Cl  Cl1  1  -0.00003  0.50203  0.48797  1
 Cl  Cl2  1  0.50001  0.50202  0.98802  1
 Cl  Cl3  1  0.50001  0.00194  0.48799  1
 Tl  Tl1  1  0.00004  0.00210  0.98799  1
