CIF file written using JARVIS-Tools package.
data_Mn3B4
_symmetry_space_group_name_H-M  'Immm'
_cell_length_a       2.94574
_cell_length_b       2.98901
_cell_length_c       6.64916
_cell_angle_alpha    102.989
_cell_angle_beta     102.798
_cell_angle_gamma    90.0001

_symmetry_Int_Tables_number  71
_chemical_formula_structural  Mn3B4
_chemical_formula_sum  Mn3B4
_cell_volume  55.553040513683186
_cell_formula_units_Z  1
loop_
  _symmetry_equiv_pos_site_id
 _symmetry_equiv_pos_as_xyz
 1  'x, y, z'
loop_
 _atom_site_type_symbol
 _atom_site_label
 _atom_site_symmetry_multiplicity
 _atom_site_fract_x
 _atom_site_fract_y
 _atom_site_fract_z
 _atom_site_fract_occupancy
 B  B1  1  0.93239  0.43239  0.86478  1
 B  B2  1  0.06761  0.56761  0.13522  1
 B  B3  1  0.35648  0.35649  0.71296  1
 B  B4  1  0.64352  0.64351  0.28704  1
 Mn  Mn1  1  0.18466  0.18465  0.36932  1
 Mn  Mn2  1  0.81534  0.81535  0.63068  1
 Mn  Mn3  1  0.50000  0.00000  0.00000  1
