CIF file written using JARVIS-Tools package.
data_RbAuS2O8
_symmetry_space_group_name_H-M  'P-1'
_cell_length_a       4.23721
_cell_length_b       4.97636
_cell_length_c       8.87918
_cell_angle_alpha    102.877
_cell_angle_beta     88.8798
_cell_angle_gamma    105.797

_symmetry_Int_Tables_number  2
_chemical_formula_structural  RbAuS2O8
_chemical_formula_sum  RbAuS2O8
_cell_volume  175.45458872572206
_cell_formula_units_Z  1
loop_
  _symmetry_equiv_pos_site_id
 _symmetry_equiv_pos_as_xyz
 1  'x, y, z'
loop_
 _atom_site_type_symbol
 _atom_site_label
 _atom_site_symmetry_multiplicity
 _atom_site_fract_x
 _atom_site_fract_y
 _atom_site_fract_z
 _atom_site_fract_occupancy
 Au  Au1  1  0.00000  -0.00000  0.50000  1
 O  O1  1  0.53929  0.63076  0.76540  1
 O  O2  1  0.31718  0.04074  0.86275  1
 O  O3  1  0.68282  0.95926  0.13725  1
 O  O4  1  0.21778  0.75452  0.59166  1
 O  O5  1  0.78222  0.24548  0.40834  1
 O  O6  1  0.24775  0.90177  0.30866  1
 O  O7  1  0.75225  0.09823  0.69134  1
 O  O8  1  0.46071  0.36924  0.23460  1
 Rb  Rb1  1  -0.00000  0.50000  -0.00000  1
 S  S1  1  0.54673  0.12384  0.26378  1
 S  S2  1  0.45327  0.87616  0.73622  1
