CIF file written using JARVIS-Tools package.
data_Zn3Hg
_symmetry_space_group_name_H-M  'P6_3/mmc'
_cell_length_a       6.20306
_cell_length_b       6.20306
_cell_length_c       4.29592
_cell_angle_alpha    90
_cell_angle_beta     90
_cell_angle_gamma    120

_symmetry_Int_Tables_number  194
_chemical_formula_structural  Zn3Hg
_chemical_formula_sum  Zn6Hg2
_cell_volume  143.152348196105
_cell_formula_units_Z  2
loop_
  _symmetry_equiv_pos_site_id
 _symmetry_equiv_pos_as_xyz
 1  'x, y, z'
loop_
 _atom_site_type_symbol
 _atom_site_label
 _atom_site_symmetry_multiplicity
 _atom_site_fract_x
 _atom_site_fract_y
 _atom_site_fract_z
 _atom_site_fract_occupancy
 Hg  Hg1  1  0.33333  0.66667  0.25000  1
 Hg  Hg2  1  0.66667  0.33333  0.75000  1
 Zn  Zn1  1  0.68960  0.84480  0.75000  1
 Zn  Zn2  1  0.15520  0.31040  0.75000  1
 Zn  Zn3  1  0.15520  0.84480  0.75000  1
 Zn  Zn4  1  0.31040  0.15520  0.25000  1
 Zn  Zn5  1  0.84480  0.68960  0.25000  1
 Zn  Zn6  1  0.84480  0.15520  0.25000  1
