CIF file written using JARVIS-Tools package.
data_TmMg2
_symmetry_space_group_name_H-M  'P6/mmm'
_cell_length_a       3.24071
_cell_length_b       5.17323
_cell_length_c       5.17309
_cell_angle_alpha    120.001
_cell_angle_beta     90.0126
_cell_angle_gamma    90

_symmetry_Int_Tables_number  191
_chemical_formula_structural  TmMg2
_chemical_formula_sum  TmMg2
_cell_volume  75.10688304474826
_cell_formula_units_Z  1
loop_
  _symmetry_equiv_pos_site_id
 _symmetry_equiv_pos_as_xyz
 1  'x, y, z'
loop_
 _atom_site_type_symbol
 _atom_site_label
 _atom_site_symmetry_multiplicity
 _atom_site_fract_x
 _atom_site_fract_y
 _atom_site_fract_z
 _atom_site_fract_occupancy
 Mg  Mg1  1  0.16658  0.08333  0.00000  1
 Mg  Mg2  1  0.16675  0.75000  0.33333  1
 Tm  Tm1  1  0.66667  0.41667  0.66667  1
