CIF file written using JARVIS-Tools package.
data_CaMgC2O6
_symmetry_space_group_name_H-M  'R-3'
_cell_length_a       5.98887
_cell_length_b       5.98887
_cell_length_c       5.98888
_cell_angle_alpha    47.7416
_cell_angle_beta     47.7416
_cell_angle_gamma    47.7417

_symmetry_Int_Tables_number  148
_chemical_formula_structural  CaMgC2O6
_chemical_formula_sum  CaMgC2O6
_cell_volume  107.73239688126347
_cell_formula_units_Z  1
loop_
  _symmetry_equiv_pos_site_id
 _symmetry_equiv_pos_as_xyz
 1  'x, y, z'
loop_
 _atom_site_type_symbol
 _atom_site_label
 _atom_site_symmetry_multiplicity
 _atom_site_fract_x
 _atom_site_fract_y
 _atom_site_fract_z
 _atom_site_fract_occupancy
 C  C1  1  0.75711  0.75711  0.75711  1
 C  C2  1  0.24289  0.24289  0.24289  1
 Ca  Ca1  1  0.00000  0.00000  0.00000  1
 Mg  Mg1  1  0.50000  0.50000  0.50000  1
 O  O1  1  0.72193  0.50763  0.03871  1
 O  O2  1  0.03871  0.72193  0.50763  1
 O  O3  1  0.49237  0.96129  0.27807  1
 O  O4  1  0.27807  0.49237  0.96129  1
 O  O5  1  0.96129  0.27807  0.49237  1
 O  O6  1  0.50763  0.03871  0.72193  1
