CIF file written using JARVIS-Tools package.
data_KRb2ScF6
_symmetry_space_group_name_H-M  'P2_1/c'
_cell_length_a       6.375
_cell_length_b       6.39782
_cell_length_c       11.0371
_cell_angle_alpha    90
_cell_angle_beta     125.159
_cell_angle_gamma    90

_symmetry_Int_Tables_number  14
_chemical_formula_structural  KRb2ScF6
_chemical_formula_sum  K2Rb4Sc2F2
_cell_volume  368.02965000152125
_cell_formula_units_Z  2
loop_
  _symmetry_equiv_pos_site_id
 _symmetry_equiv_pos_as_xyz
 1  'x, y, z'
loop_
 _atom_site_type_symbol
 _atom_site_label
 _atom_site_symmetry_multiplicity
 _atom_site_fract_x
 _atom_site_fract_y
 _atom_site_fract_z
 _atom_site_fract_occupancy
 F  F1  1  0.71398  0.98258  0.77990  1
 F  F2  1  0.85530  0.75717  0.53660  1
 F  F3  1  0.28602  0.01742  0.22010  1
 F  F4  1  0.14470  0.24283  0.46340  1
 F  F5  1  0.85530  0.74283  0.03660  1
 F  F6  1  0.14470  0.25717  0.96340  1
 F  F7  1  0.77740  0.18553  0.03264  1
 F  F8  1  0.77740  0.31447  0.53264  1
 F  F9  1  0.22260  0.81447  0.96736  1
 F  F10  1  0.71398  0.51742  0.27990  1
 F  F11  1  0.28602  0.48258  0.72010  1
 F  F12  1  0.22260  0.68553  0.46736  1
 K  K1  1  0.50000  0.50000  0.00000  1
 K  K2  1  0.50000  0.00000  0.50000  1
 Rb  Rb1  1  0.24413  0.03103  0.74977  1
 Rb  Rb2  1  0.75587  0.53103  0.75023  1
 Rb  Rb3  1  0.75587  0.96897  0.25023  1
 Rb  Rb4  1  0.24413  0.46897  0.24977  1
 Sc  Sc1  1  0.00000  0.50000  0.50000  1
 Sc  Sc2  1  0.00000  0.00000  0.00000  1
