CIF file written using JARVIS-Tools package.
data_SrGaSn
_symmetry_space_group_name_H-M  'P6_3/mmc'
_cell_length_a       4.60355
_cell_length_b       4.60355
_cell_length_c       18.694
_cell_angle_alpha    90
_cell_angle_beta     90
_cell_angle_gamma    120

_symmetry_Int_Tables_number  194
_chemical_formula_structural  SrGaSn
_chemical_formula_sum  Sr4Ga4Sn4
_cell_volume  343.0965834223294
_cell_formula_units_Z  4
loop_
  _symmetry_equiv_pos_site_id
 _symmetry_equiv_pos_as_xyz
 1  'x, y, z'
loop_
 _atom_site_type_symbol
 _atom_site_label
 _atom_site_symmetry_multiplicity
 _atom_site_fract_x
 _atom_site_fract_y
 _atom_site_fract_z
 _atom_site_fract_occupancy
 Ga  Ga1  1  0.66667  0.33333  0.16179  1
 Ga  Ga2  1  0.33333  0.66667  0.66179  1
 Ga  Ga3  1  0.66667  0.33333  0.33821  1
 Ga  Ga4  1  0.33333  0.66667  0.83821  1
 Sn  Sn1  1  0.33333  0.66667  0.38534  1
 Sn  Sn2  1  0.66667  0.33333  0.88534  1
 Sn  Sn3  1  0.66667  0.33333  0.61466  1
 Sn  Sn4  1  0.33333  0.66667  0.11466  1
 Sr  Sr1  1  0.00000  0.00000  0.00000  1
 Sr  Sr2  1  0.00000  0.00000  0.75000  1
 Sr  Sr3  1  0.00000  0.00000  0.50000  1
 Sr  Sr4  1  0.00000  0.00000  0.25000  1
