CIF file written using JARVIS-Tools package.
data_NbS2
_symmetry_space_group_name_H-M  'R-3m'
_cell_length_a       6.42242
_cell_length_b       6.42242
_cell_length_c       6.42242
_cell_angle_alpha    30.6113
_cell_angle_beta     30.6114
_cell_angle_gamma    30.6113

_symmetry_Int_Tables_number  166
_chemical_formula_structural  NbS2
_chemical_formula_sum  NbS2
_cell_volume  60.899892647850486
_cell_formula_units_Z  1
loop_
  _symmetry_equiv_pos_site_id
 _symmetry_equiv_pos_as_xyz
 1  'x, y, z'
loop_
 _atom_site_type_symbol
 _atom_site_label
 _atom_site_symmetry_multiplicity
 _atom_site_fract_x
 _atom_site_fract_y
 _atom_site_fract_z
 _atom_site_fract_occupancy
 Nb  Nb1  1  0.00000  0.00000  0.00000  1
 S  S1  1  0.75121  0.75121  0.75121  1
 S  S2  1  0.24879  0.24879  0.24879  1
