CIF file written using JARVIS-Tools package.
data_Te2Mo3WSe6
_symmetry_space_group_name_H-M  'P3m1'
_cell_length_a       3.3847
_cell_length_b       3.38475
_cell_length_c       35.5462
_cell_angle_alpha    89.9958
_cell_angle_beta     90.0016
_cell_angle_gamma    120

_symmetry_Int_Tables_number  156
_chemical_formula_structural  Te2Mo3WSe6
_chemical_formula_sum  Te2Mo3WSe6
_cell_volume  352.6721971554385
_cell_formula_units_Z  1
loop_
  _symmetry_equiv_pos_site_id
 _symmetry_equiv_pos_as_xyz
 1  'x, y, z'
loop_
 _atom_site_type_symbol
 _atom_site_label
 _atom_site_symmetry_multiplicity
 _atom_site_fract_x
 _atom_site_fract_y
 _atom_site_fract_z
 _atom_site_fract_occupancy
 Mo  Mo1  1  0.33333  0.66667  0.09691  1
 Mo  Mo2  1  0.33333  0.66667  0.46514  1
 Mo  Mo3  1  0.66666  0.33332  0.65982  1
 Se  Se1  1  0.33334  0.66664  0.32780  1
 Se  Se2  1  0.66666  0.33337  0.05043  1
 Se  Se3  1  0.66666  0.33337  0.41861  1
 Se  Se4  1  0.66666  0.33329  0.14346  1
 Se  Se5  1  0.66667  0.33330  0.51171  1
 Se  Se6  1  0.33334  0.66671  0.23428  1
 Te  Te1  1  0.33333  0.66661  0.71274  1
 Te  Te2  1  0.33333  0.66670  0.60681  1
 W  W1  1  0.66667  0.33334  0.28104  1
