CIF file written using JARVIS-Tools package.
data_AgPbO2
_symmetry_space_group_name_H-M  'C2/m'
_cell_length_a       3.53148
_cell_length_b       6.45798
_cell_length_c       6.70916
_cell_angle_alpha    97.9564
_cell_angle_beta     105.259
_cell_angle_gamma    90

_symmetry_Int_Tables_number  12
_chemical_formula_structural  AgPbO2
_chemical_formula_sum  Ag2Pb2O4
_cell_volume  146.08880435819012
_cell_formula_units_Z  2
loop_
  _symmetry_equiv_pos_site_id
 _symmetry_equiv_pos_as_xyz
 1  'x, y, z'
loop_
 _atom_site_type_symbol
 _atom_site_label
 _atom_site_symmetry_multiplicity
 _atom_site_fract_x
 _atom_site_fract_y
 _atom_site_fract_z
 _atom_site_fract_occupancy
 Ag  Ag1  1  0.74992  0.79961  0.49985  1
 Ag  Ag2  1  0.25008  0.20039  0.50015  1
 O  O1  1  0.91145  0.82889  0.82290  1
 O  O2  1  0.41085  0.26260  0.82169  1
 O  O3  1  0.58915  0.73740  0.17831  1
 O  O4  1  0.08855  0.17111  0.17710  1
 Pb  Pb1  1  0.50000  -0.00000  0.00000  1
 Pb  Pb2  1  0.00000  0.50000  0.00000  1
