CIF file written using JARVIS-Tools package.
data_Rb2Mg
_symmetry_space_group_name_H-M  'Cmcm'
_cell_length_a       5.63762
_cell_length_b       7.59073
_cell_length_c       9.64284
_cell_angle_alpha    66.8217
_cell_angle_beta     90
_cell_angle_gamma    90

_symmetry_Int_Tables_number  63
_chemical_formula_structural  Rb2Mg
_chemical_formula_sum  Rb4Mg2
_cell_volume  379.34523878023657
_cell_formula_units_Z  2
loop_
  _symmetry_equiv_pos_site_id
 _symmetry_equiv_pos_as_xyz
 1  'x, y, z'
loop_
 _atom_site_type_symbol
 _atom_site_label
 _atom_site_symmetry_multiplicity
 _atom_site_fract_x
 _atom_site_fract_y
 _atom_site_fract_z
 _atom_site_fract_occupancy
 Mg  Mg1  1  0.00000  0.39095  0.33333  1
 Mg  Mg2  1  0.50000  0.60905  0.33333  1
 Rb  Rb1  1  0.50000  0.36668  0.05153  1
 Rb  Rb2  1  0.00000  0.91513  0.05153  1
 Rb  Rb3  1  0.00000  0.63332  0.61514  1
 Rb  Rb4  1  0.50000  0.08487  0.61514  1
