CIF file written using JARVIS-Tools package.
data_SrBPO5
_symmetry_space_group_name_H-M  'P3_121'
_cell_length_a       6.88328
_cell_length_b       6.88328
_cell_length_c       6.85782
_cell_angle_alpha    90
_cell_angle_beta     90
_cell_angle_gamma    120

_symmetry_Int_Tables_number  152
_chemical_formula_structural  SrBPO5
_chemical_formula_sum  Sr3B3P3O5
_cell_volume  281.3890756280836
_cell_formula_units_Z  3
loop_
  _symmetry_equiv_pos_site_id
 _symmetry_equiv_pos_as_xyz
 1  'x, y, z'
loop_
 _atom_site_type_symbol
 _atom_site_label
 _atom_site_symmetry_multiplicity
 _atom_site_fract_x
 _atom_site_fract_y
 _atom_site_fract_z
 _atom_site_fract_occupancy
 B  B1  1  0.90075  0.90075  0.50000  1
 B  B2  1  0.00000  0.09925  0.16667  1
 B  B3  1  0.09925  0.00000  0.83333  1
 O  O1  1  0.66146  0.84933  0.46093  1
 O  O2  1  0.00000  0.04404  0.66667  1
 O  O3  1  0.95596  0.95596  0.00000  1
 O  O4  1  0.54903  0.13727  0.47982  1
 O  O5  1  0.45097  0.58824  0.85352  1
 O  O6  1  0.41176  0.86273  0.18685  1
 O  O7  1  0.13727  0.54903  0.52018  1
 O  O8  1  0.04404  0.00000  0.33333  1
 O  O9  1  0.81213  0.15067  0.20574  1
 O  O10  1  0.84933  0.66146  0.53907  1
 O  O11  1  0.86273  0.41176  0.81315  1
 O  O12  1  0.33854  0.18787  0.87240  1
 O  O13  1  0.18787  0.33854  0.12760  1
 O  O14  1  0.58824  0.45097  0.14648  1
 O  O15  1  0.15067  0.81213  0.79426  1
 P  P1  1  0.40652  0.40652  0.00000  1
 P  P2  1  0.59348  -0.00000  0.33333  1
 P  P3  1  -0.00000  0.59348  0.66667  1
 Sr  Sr1  1  0.39455  0.39455  0.50000  1
 Sr  Sr2  1  0.60545  -0.00000  0.83333  1
 Sr  Sr3  1  -0.00000  0.60545  0.16667  1
