CIF file written using JARVIS-Tools package.
data_Lu2Fe17C3
_symmetry_space_group_name_H-M  'R-3m'
_cell_length_a       6.42108
_cell_length_b       6.42108
_cell_length_c       6.42109
_cell_angle_alpha    82.7717
_cell_angle_beta     82.7717
_cell_angle_gamma    82.7717

_symmetry_Int_Tables_number  166
_chemical_formula_structural  Lu2Fe17C3
_chemical_formula_sum  Lu2Fe7C3
_cell_volume  258.91923187505085
_cell_formula_units_Z  1
loop_
  _symmetry_equiv_pos_site_id
 _symmetry_equiv_pos_as_xyz
 1  'x, y, z'
loop_
 _atom_site_type_symbol
 _atom_site_label
 _atom_site_symmetry_multiplicity
 _atom_site_fract_x
 _atom_site_fract_y
 _atom_site_fract_z
 _atom_site_fract_occupancy
 C  C1  1  0.50000  1.00000  0.50000  1
 C  C2  1  0.50000  0.50000  1.00000  1
 C  C3  1  1.00000  0.50000  0.50000  1
 Fe  Fe1  1  0.09661  0.09661  0.09661  1
 Fe  Fe2  1  0.90339  0.90339  0.90339  1
 Fe  Fe3  1  0.28228  0.71772  1.00000  1
 Fe  Fe4  1  1.00000  0.28228  0.71772  1
 Fe  Fe5  1  0.71772  1.00000  0.28228  1
 Fe  Fe6  1  0.71772  0.28228  1.00000  1
 Fe  Fe7  1  1.00000  0.71772  0.28228  1
 Fe  Fe8  1  0.28228  1.00000  0.71772  1
 Fe  Fe9  1  0.65427  0.14876  0.65428  1
 Fe  Fe10  1  0.14876  0.65427  0.65428  1
 Fe  Fe11  1  0.85124  0.34573  0.34572  1
 Fe  Fe12  1  0.34573  0.34573  0.85124  1
 Fe  Fe13  1  0.34573  0.85124  0.34572  1
 Fe  Fe14  1  0.00000  0.00000  0.50000  1
 Fe  Fe15  1  0.50000  -0.00000  0.00000  1
 Fe  Fe16  1  -0.00000  0.50000  0.00000  1
 Fe  Fe17  1  0.65427  0.65427  0.14876  1
 Lu  Lu1  1  0.65764  0.65764  0.65764  1
 Lu  Lu2  1  0.34235  0.34235  0.34235  1
