CIF file written using JARVIS-Tools package.
data_ZrSi2
_symmetry_space_group_name_H-M  'Cmcm'
_cell_length_a       3.6964
_cell_length_b       3.72416
_cell_length_c       7.70999
_cell_angle_alpha    103.976
_cell_angle_beta     90
_cell_angle_gamma    90

_symmetry_Int_Tables_number  63
_chemical_formula_structural  ZrSi2
_chemical_formula_sum  Zr2Si4
_cell_volume  102.99376865136549
_cell_formula_units_Z  2
loop_
  _symmetry_equiv_pos_site_id
 _symmetry_equiv_pos_as_xyz
 1  'x, y, z'
loop_
 _atom_site_type_symbol
 _atom_site_label
 _atom_site_symmetry_multiplicity
 _atom_site_fract_x
 _atom_site_fract_y
 _atom_site_fract_z
 _atom_site_fract_occupancy
 Si  Si1  1  0.25000  0.55278  0.10556  1
 Si  Si2  1  0.75000  0.44722  0.89444  1
 Si  Si3  1  0.75000  0.74966  0.49933  1
 Si  Si4  1  0.25000  0.25034  0.50067  1
 Zr  Zr1  1  0.75000  0.10598  0.21195  1
 Zr  Zr2  1  0.25000  0.89402  0.78805  1
