CIF file written using JARVIS-Tools package.
data_TbAg3
_symmetry_space_group_name_H-M  'I4/mmm'
_cell_length_a       5.14284
_cell_length_b       5.14284
_cell_length_c       5.14284
_cell_angle_alpha    128.238
_cell_angle_beta     128.238
_cell_angle_gamma    76.2398

_symmetry_Int_Tables_number  139
_chemical_formula_structural  TbAg3
_chemical_formula_sum  TbAg3
_cell_volume  81.55793911839844
_cell_formula_units_Z  1
loop_
  _symmetry_equiv_pos_site_id
 _symmetry_equiv_pos_as_xyz
 1  'x, y, z'
loop_
 _atom_site_type_symbol
 _atom_site_label
 _atom_site_symmetry_multiplicity
 _atom_site_fract_x
 _atom_site_fract_y
 _atom_site_fract_z
 _atom_site_fract_occupancy
 Ag  Ag1  1  0.75000  0.25000  0.50000  1
 Ag  Ag2  1  0.25000  0.75000  0.50000  1
 Ag  Ag3  1  0.50000  0.50000  0.00000  1
 Tb  Tb1  1  0.00000  0.00000  0.00000  1
