CIF file written using JARVIS-Tools package.
data_SmH3O3
_symmetry_space_group_name_H-M  'P6_3/m'
_cell_length_a       6.37711
_cell_length_b       3.66179
_cell_length_c       6.3771
_cell_angle_alpha    90
_cell_angle_beta     119.987
_cell_angle_gamma    90

_symmetry_Int_Tables_number  176
_chemical_formula_structural  SmH3O3
_chemical_formula_sum  Sm2H6O6
_cell_volume  128.9820485249114
_cell_formula_units_Z  2
loop_
  _symmetry_equiv_pos_site_id
 _symmetry_equiv_pos_as_xyz
 1  'x, y, z'
loop_
 _atom_site_type_symbol
 _atom_site_label
 _atom_site_symmetry_multiplicity
 _atom_site_fract_x
 _atom_site_fract_y
 _atom_site_fract_z
 _atom_site_fract_occupancy
 H  H1  1  0.72691  0.75000  0.86328  1
 H  H2  1  0.13656  0.75000  0.86362  1
 H  H3  1  0.13647  0.75000  0.27314  1
 H  H4  1  0.27309  0.25000  0.13672  1
 H  H5  1  0.86344  0.25000  0.13638  1
 H  H6  1  0.86353  0.25000  0.72686  1
 O  O1  1  0.60840  0.75000  0.91764  1
 O  O2  1  0.08227  0.75000  0.69078  1
 O  O3  1  0.30930  0.75000  0.39163  1
 O  O4  1  0.39160  0.25000  0.08236  1
 O  O5  1  0.91773  0.25000  0.30922  1
 O  O6  1  0.69070  0.25000  0.60837  1
 Sm  Sm1  1  0.66667  0.75000  0.33330  1
 Sm  Sm2  1  0.33333  0.25000  0.66670  1
