CIF file written using JARVIS-Tools package.
data_SrZnSb2
_symmetry_space_group_name_H-M  'Pnma'
_cell_length_a       4.43855
_cell_length_b       4.47671
_cell_length_c       22.7134
_cell_angle_alpha    90
_cell_angle_beta     90
_cell_angle_gamma    90

_symmetry_Int_Tables_number  62
_chemical_formula_structural  SrZnSb2
_chemical_formula_sum  Sr4Zn4Sb8
_cell_volume  451.3187150782708
_cell_formula_units_Z  4
loop_
  _symmetry_equiv_pos_site_id
 _symmetry_equiv_pos_as_xyz
 1  'x, y, z'
loop_
 _atom_site_type_symbol
 _atom_site_label
 _atom_site_symmetry_multiplicity
 _atom_site_fract_x
 _atom_site_fract_y
 _atom_site_fract_z
 _atom_site_fract_occupancy
 Sb  Sb1  1  0.25000  0.22113  0.00113  1
 Sb  Sb2  1  0.75000  0.77887  0.99887  1
 Sb  Sb3  1  0.75000  0.72113  0.49887  1
 Sb  Sb4  1  0.25000  0.27887  0.50113  1
 Sb  Sb5  1  0.25000  0.72933  0.32444  1
 Sb  Sb6  1  0.75000  0.27067  0.67556  1
 Sb  Sb7  1  0.75000  0.22933  0.17556  1
 Sb  Sb8  1  0.25000  0.77067  0.82444  1
 Sr  Sr1  1  0.25000  0.77046  0.61687  1
 Sr  Sr2  1  0.75000  0.22954  0.38313  1
 Sr  Sr3  1  0.75000  0.27046  0.88313  1
 Sr  Sr4  1  0.25000  0.72954  0.11687  1
 Zn  Zn1  1  0.25000  0.27123  0.75002  1
 Zn  Zn2  1  0.75000  0.72877  0.24998  1
 Zn  Zn3  1  0.75000  0.77123  0.74998  1
 Zn  Zn4  1  0.25000  0.22877  0.25002  1
