CIF file written using JARVIS-Tools package.
data_RbSnCl3
_symmetry_space_group_name_H-M  'R3c'
_cell_length_a       7.41632
_cell_length_b       7.41632
_cell_length_c       7.41632
_cell_angle_alpha    65.5523
_cell_angle_beta     65.5522
_cell_angle_gamma    65.5523

_symmetry_Int_Tables_number  161
_chemical_formula_structural  RbSnCl3
_chemical_formula_sum  Rb2Sn2Cl6
_cell_volume  323.23543680915833
_cell_formula_units_Z  2
loop_
  _symmetry_equiv_pos_site_id
 _symmetry_equiv_pos_as_xyz
 1  'x, y, z'
loop_
 _atom_site_type_symbol
 _atom_site_label
 _atom_site_symmetry_multiplicity
 _atom_site_fract_x
 _atom_site_fract_y
 _atom_site_fract_z
 _atom_site_fract_occupancy
 Cl  Cl1  1  0.21044  0.86696  0.67933  1
 Cl  Cl2  1  0.86696  0.67933  0.21044  1
 Cl  Cl3  1  0.67933  0.21044  0.86696  1
 Cl  Cl4  1  0.17933  0.36696  0.71044  1
 Cl  Cl5  1  0.71044  0.17933  0.36696  1
 Cl  Cl6  1  0.36696  0.71044  0.17933  1
 Rb  Rb1  1  0.26193  0.26193  0.26193  1
 Rb  Rb2  1  0.76193  0.76193  0.76193  1
 Sn  Sn1  1  0.00985  0.00985  0.00985  1
 Sn  Sn2  1  0.50985  0.50985  0.50985  1
