CIF file written using JARVIS-Tools package.
data_Mn2HO4
_symmetry_space_group_name_H-M  'Pmc2_1'
_cell_length_a       2.92522
_cell_length_b       4.64117
_cell_length_c       9.62303
_cell_angle_alpha    90
_cell_angle_beta     90
_cell_angle_gamma    90

_symmetry_Int_Tables_number  26
_chemical_formula_structural  Mn2HO4
_chemical_formula_sum  Mn4H2O8
_cell_volume  130.64634528886313
_cell_formula_units_Z  2
loop_
  _symmetry_equiv_pos_site_id
 _symmetry_equiv_pos_as_xyz
 1  'x, y, z'
loop_
 _atom_site_type_symbol
 _atom_site_label
 _atom_site_symmetry_multiplicity
 _atom_site_fract_x
 _atom_site_fract_y
 _atom_site_fract_z
 _atom_site_fract_occupancy
 H  H1  1  0.00000  0.70734  0.47258  1
 H  H2  1  0.00000  0.29266  0.97258  1
 Mn  Mn1  1  0.00000  0.21225  0.63575  1
 Mn  Mn2  1  0.00000  0.78775  0.13575  1
 Mn  Mn3  1  0.50000  0.29264  0.35679  1
 Mn  Mn4  1  0.50000  0.70736  0.85679  1
 O  O1  1  0.00000  0.49496  0.46370  1
 O  O2  1  0.00000  0.50504  0.96370  1
 O  O3  1  0.50000  0.04883  0.52425  1
 O  O4  1  0.50000  0.95117  0.02425  1
 O  O5  1  0.00000  0.90646  0.77418  1
 O  O6  1  0.00000  0.09354  0.27418  1
 O  O7  1  0.50000  0.59343  0.22257  1
 O  O8  1  0.50000  0.40657  0.72257  1
