CIF file written using JARVIS-Tools package.
data_BaZrSe3
_symmetry_space_group_name_H-M  'P1'
_cell_length_a       5.25727
_cell_length_b       5.26428
_cell_length_c       5.26746
_cell_angle_alpha    89.9517
_cell_angle_beta     89.9868
_cell_angle_gamma    89.997

_symmetry_Int_Tables_number  1
_chemical_formula_structural  BaZrSe3
_chemical_formula_sum  BaZrSe3
_cell_volume  145.78068308089962
_cell_formula_units_Z  1
loop_
  _symmetry_equiv_pos_site_id
 _symmetry_equiv_pos_as_xyz
 1  'x, y, z'
loop_
 _atom_site_type_symbol
 _atom_site_label
 _atom_site_symmetry_multiplicity
 _atom_site_fract_x
 _atom_site_fract_y
 _atom_site_fract_z
 _atom_site_fract_occupancy
 Ba  Ba1  1  0.98734  0.99575  0.99210  1
 Se  Se1  1  0.48898  0.99898  0.50630  1
 Se  Se2  1  0.98795  0.50824  0.50778  1
 Se  Se3  1  0.48862  0.50622  0.99687  1
 Zr  Zr1  1  0.48712  0.49081  0.48695  1
