CIF file written using JARVIS-Tools package.
data_MgTa
_symmetry_space_group_name_H-M  'Pmma'
_cell_length_a       2.84471
_cell_length_b       4.86499
_cell_length_c       5.5262
_cell_angle_alpha    90
_cell_angle_beta     90
_cell_angle_gamma    90

_symmetry_Int_Tables_number  51
_chemical_formula_structural  MgTa
_chemical_formula_sum  Mg2Ta2
_cell_volume  76.47993474602598
_cell_formula_units_Z  2
loop_
  _symmetry_equiv_pos_site_id
 _symmetry_equiv_pos_as_xyz
 1  'x, y, z'
loop_
 _atom_site_type_symbol
 _atom_site_label
 _atom_site_symmetry_multiplicity
 _atom_site_fract_x
 _atom_site_fract_y
 _atom_site_fract_z
 _atom_site_fract_occupancy
 Mg  Mg1  1  0.00000  0.75000  0.14159  1
 Mg  Mg2  1  0.00000  0.25000  0.85841  1
 Ta  Ta1  1  0.50000  0.25000  0.37982  1
 Ta  Ta2  1  0.50000  0.75000  0.62018  1
