CIF file written using JARVIS-Tools package.
data_CrAs2
_symmetry_space_group_name_H-M  'C2/m'
_cell_length_a       3.25601
_cell_length_b       4.76866
_cell_length_c       6.67808
_cell_angle_alpha    78.9271
_cell_angle_beta     75.89
_cell_angle_gamma    70.038

_symmetry_Int_Tables_number  12
_chemical_formula_structural  CrAs2
_chemical_formula_sum  Cr2As4
_cell_volume  93.84333051868228
_cell_formula_units_Z  2
loop_
  _symmetry_equiv_pos_site_id
 _symmetry_equiv_pos_as_xyz
 1  'x, y, z'
loop_
 _atom_site_type_symbol
 _atom_site_label
 _atom_site_symmetry_multiplicity
 _atom_site_fract_x
 _atom_site_fract_y
 _atom_site_fract_z
 _atom_site_fract_occupancy
 As  As1  1  0.40469  0.79601  0.39461  1
 As  As2  1  0.59531  0.20399  0.60539  1
 As  As3  1  0.84928  0.26319  0.03826  1
 As  As4  1  0.15072  0.73681  0.96174  1
 Cr  Cr1  1  0.15276  0.39368  0.30081  1
 Cr  Cr2  1  0.84724  0.60632  0.69919  1
