CIF file written using JARVIS-Tools package.
data_Tl2Ge2S5
_symmetry_space_group_name_H-M  'C2/c'
_cell_length_a       8.8096
_cell_length_b       10.7156
_cell_length_c       10.7156
_cell_angle_alpha    89.9054
_cell_angle_beta     101.918
_cell_angle_gamma    101.918

_symmetry_Int_Tables_number  15
_chemical_formula_structural  Tl2Ge2S5
_chemical_formula_sum  Tl8Ge8S20
_cell_volume  967.5309223216332
_cell_formula_units_Z  4
loop_
  _symmetry_equiv_pos_site_id
 _symmetry_equiv_pos_as_xyz
 1  'x, y, z'
loop_
 _atom_site_type_symbol
 _atom_site_label
 _atom_site_symmetry_multiplicity
 _atom_site_fract_x
 _atom_site_fract_y
 _atom_site_fract_z
 _atom_site_fract_occupancy
 Ge  Ge1  1  0.08824  0.26540  0.52046  1
 Ge  Ge2  1  0.91176  0.73460  0.47954  1
 Ge  Ge3  1  0.61217  0.86708  0.27002  1
 Ge  Ge4  1  0.88783  0.72998  0.13292  1
 Ge  Ge5  1  0.38783  0.13292  0.72998  1
 Ge  Ge6  1  0.58824  0.52046  0.26540  1
 Ge  Ge7  1  0.41176  0.47954  0.73460  1
 Ge  Ge8  1  0.11217  0.27002  0.86708  1
 S  S1  1  0.95681  0.24295  0.00087  1
 S  S2  1  0.45681  0.00087  0.24295  1
 S  S3  1  0.72731  0.53380  0.10595  1
 S  S4  1  0.22731  0.10595  0.53380  1
 S  S5  1  0.04319  0.75705  0.99913  1
 S  S6  1  0.57344  0.66533  0.76033  1
 S  S7  1  0.07344  0.76033  0.66533  1
 S  S8  1  0.42656  0.33467  0.23967  1
 S  S9  1  0.05720  0.75955  0.32644  1
 S  S10  1  0.44280  0.67356  0.24045  1
 S  S11  1  0.94280  0.24045  0.67356  1
 S  S12  1  0.54319  0.99913  0.75705  1
 S  S13  1  0.75000  0.89065  0.10935  1
 S  S14  1  0.77269  0.89405  0.46620  1
 S  S15  1  0.75000  0.53794  0.46206  1
 S  S16  1  0.55720  0.32644  0.75955  1
 S  S17  1  0.25000  0.46206  0.53794  1
 S  S18  1  0.92656  0.23967  0.33467  1
 S  S19  1  0.27269  0.46620  0.89405  1
 S  S20  1  0.25000  0.10935  0.89065  1
 Tl  Tl1  1  0.39308  0.79633  0.92641  1
 Tl  Tl2  1  0.89552  0.53992  0.79840  1
 Tl  Tl3  1  0.60448  0.20160  0.46008  1
 Tl  Tl4  1  0.39552  0.79840  0.53992  1
 Tl  Tl5  1  0.10692  0.07359  0.20367  1
 Tl  Tl6  1  0.60692  0.20367  0.07359  1
 Tl  Tl7  1  0.89308  0.92641  0.79633  1
 Tl  Tl8  1  0.10448  0.46008  0.20160  1
