CIF file written using JARVIS-Tools package.
data_Te2MoWS2
_symmetry_space_group_name_H-M  'P3m1'
_cell_length_a       3.36781
_cell_length_b       3.36787
_cell_length_c       34.5742
_cell_angle_alpha    89.9978
_cell_angle_beta     90
_cell_angle_gamma    119.999

_symmetry_Int_Tables_number  156
_chemical_formula_structural  Te2MoWS2
_chemical_formula_sum  Te4Mo2W2S4
_cell_volume  339.6164856400893
_cell_formula_units_Z  2
loop_
  _symmetry_equiv_pos_site_id
 _symmetry_equiv_pos_as_xyz
 1  'x, y, z'
loop_
 _atom_site_type_symbol
 _atom_site_label
 _atom_site_symmetry_multiplicity
 _atom_site_fract_x
 _atom_site_fract_y
 _atom_site_fract_z
 _atom_site_fract_occupancy
 Mo  Mo1  1  0.33329  0.66658  0.09353  1
 Mo  Mo2  1  0.66671  0.33341  0.28716  1
 S  S1  1  0.33343  0.66686  0.33088  1
 S  S2  1  0.66659  0.33318  0.41975  1
 S  S3  1  0.66675  0.33350  0.50760  1
 S  S4  1  0.33326  0.66651  0.24341  1
 Te  Te1  1  0.33341  0.66682  0.71351  1
 Te  Te2  1  0.66681  0.33363  0.03892  1
 Te  Te3  1  0.66647  0.33293  0.14830  1
 Te  Te4  1  0.33327  0.66654  0.60346  1
 W  W1  1  0.33334  0.66667  0.46367  1
 W  W2  1  0.66668  0.33336  0.65856  1
