CIF file written using JARVIS-Tools package.
data_Fe3N
_symmetry_space_group_name_H-M  'P6_322'
_cell_length_a       4.6364
_cell_length_b       4.6364
_cell_length_c       4.3063
_cell_angle_alpha    90
_cell_angle_beta     90
_cell_angle_gamma    120

_symmetry_Int_Tables_number  182
_chemical_formula_structural  Fe3N
_chemical_formula_sum  Fe6N2
_cell_volume  80.16698799276631
_cell_formula_units_Z  2
loop_
  _symmetry_equiv_pos_site_id
 _symmetry_equiv_pos_as_xyz
 1  'x, y, z'
loop_
 _atom_site_type_symbol
 _atom_site_label
 _atom_site_symmetry_multiplicity
 _atom_site_fract_x
 _atom_site_fract_y
 _atom_site_fract_z
 _atom_site_fract_occupancy
 Fe  Fe1  1  0.34146  0.00812  0.25001  1
 Fe  Fe2  1  0.66666  0.00812  0.74999  1
 Fe  Fe3  1  0.34146  0.33334  0.74999  1
 Fe  Fe4  1  0.99188  0.65854  0.74999  1
 Fe  Fe5  1  0.66666  0.65854  0.25001  1
 Fe  Fe6  1  0.99188  0.33334  0.25001  1
 N  N1  1  0.33333  0.66667  0.50000  1
 N  N2  1  0.00000  0.00000  0.00000  1
