CIF file written using JARVIS-Tools package.
data_PrAl5Ni2
_symmetry_space_group_name_H-M  'Immm'
_cell_length_a       4.01583
_cell_length_b       6.31757
_cell_length_c       6.31757
_cell_angle_alpha    67.6873
_cell_angle_beta     71.4681
_cell_angle_gamma    71.4682

_symmetry_Int_Tables_number  71
_chemical_formula_structural  PrAl5Ni2
_chemical_formula_sum  PrAl5Ni2
_cell_volume  136.99162039631247
_cell_formula_units_Z  1
loop_
  _symmetry_equiv_pos_site_id
 _symmetry_equiv_pos_as_xyz
 1  'x, y, z'
loop_
 _atom_site_type_symbol
 _atom_site_label
 _atom_site_symmetry_multiplicity
 _atom_site_fract_x
 _atom_site_fract_y
 _atom_site_fract_z
 _atom_site_fract_occupancy
 Al  Al1  1  0.00000  0.50000  0.50000  1
 Al  Al2  1  0.65859  0.15045  0.53237  1
 Al  Al3  1  0.34141  0.84955  0.46763  1
 Al  Al4  1  0.34141  0.46763  0.84955  1
 Al  Al5  1  0.65859  0.53237  0.15045  1
 Ni  Ni1  1  0.76398  0.73602  0.73602  1
 Ni  Ni2  1  0.23602  0.26398  0.26398  1
 Pr  Pr1  1  0.00000  0.00000  0.00000  1
