CIF file written using JARVIS-Tools package.
data_Sr5Sb3
_symmetry_space_group_name_H-M  'P6_3/mcm'
_cell_length_a       9.54383
_cell_length_b       9.54383
_cell_length_c       7.36625
_cell_angle_alpha    90
_cell_angle_beta     90
_cell_angle_gamma    120

_symmetry_Int_Tables_number  193
_chemical_formula_structural  Sr5Sb3
_chemical_formula_sum  Sr0Sb6
_cell_volume  581.0624798552726
_cell_formula_units_Z  2
loop_
  _symmetry_equiv_pos_site_id
 _symmetry_equiv_pos_as_xyz
 1  'x, y, z'
loop_
 _atom_site_type_symbol
 _atom_site_label
 _atom_site_symmetry_multiplicity
 _atom_site_fract_x
 _atom_site_fract_y
 _atom_site_fract_z
 _atom_site_fract_occupancy
 Sb  Sb1  1  0.00000  0.61028  0.25000  1
 Sb  Sb2  1  0.38972  -0.00000  0.75000  1
 Sb  Sb3  1  0.61028  0.61028  0.75000  1
 Sb  Sb4  1  0.38972  0.38972  0.25000  1
 Sb  Sb5  1  0.61028  0.00000  0.25000  1
 Sb  Sb6  1  -0.00000  0.38972  0.75000  1
 Sr  Sr1  1  0.33333  0.66667  0.00000  1
 Sr  Sr2  1  0.66667  0.33333  0.50000  1
 Sr  Sr3  1  0.66667  0.33333  0.00000  1
 Sr  Sr4  1  0.33333  0.66667  0.50000  1
 Sr  Sr5  1  0.00000  0.25332  0.25000  1
 Sr  Sr6  1  0.74668  -0.00000  0.75000  1
 Sr  Sr7  1  0.25332  0.25332  0.75000  1
 Sr  Sr8  1  0.74668  0.74668  0.25000  1
 Sr  Sr9  1  0.25332  0.00000  0.25000  1
 Sr  Sr10  1  -0.00000  0.74668  0.75000  1
