CIF file written using JARVIS-Tools package.
data_Sm3Hg
_symmetry_space_group_name_H-M  'P6_3/mmc'
_cell_length_a       6.94318
_cell_length_b       6.94318
_cell_length_c       5.46003
_cell_angle_alpha    90
_cell_angle_beta     90
_cell_angle_gamma    120

_symmetry_Int_Tables_number  194
_chemical_formula_structural  Sm3Hg
_chemical_formula_sum  Sm6Hg2
_cell_volume  227.95176390850702
_cell_formula_units_Z  2
loop_
  _symmetry_equiv_pos_site_id
 _symmetry_equiv_pos_as_xyz
 1  'x, y, z'
loop_
 _atom_site_type_symbol
 _atom_site_label
 _atom_site_symmetry_multiplicity
 _atom_site_fract_x
 _atom_site_fract_y
 _atom_site_fract_z
 _atom_site_fract_occupancy
 Hg  Hg1  1  0.66667  0.33333  0.75002  1
 Hg  Hg2  1  0.33333  0.66667  0.24998  1
 Sm  Sm1  1  0.82588  0.17412  0.25001  1
 Sm  Sm2  1  0.82588  0.65177  0.25001  1
 Sm  Sm3  1  0.34823  0.17412  0.25001  1
 Sm  Sm4  1  0.17412  0.82588  0.74999  1
 Sm  Sm5  1  0.17412  0.34823  0.74999  1
 Sm  Sm6  1  0.65177  0.82588  0.74999  1
