CIF file written using JARVIS-Tools package.
data_NaTi5Se8
_symmetry_space_group_name_H-M  'C2/m'
_cell_length_a       3.57837
_cell_length_b       9.03377
_cell_length_c       9.6157
_cell_angle_alpha    104.815
_cell_angle_beta     100.724
_cell_angle_gamma    90

_symmetry_Int_Tables_number  12
_chemical_formula_structural  NaTi5Se8
_chemical_formula_sum  NaTi5Se8
_cell_volume  294.8875244113902
_cell_formula_units_Z  1
loop_
  _symmetry_equiv_pos_site_id
 _symmetry_equiv_pos_as_xyz
 1  'x, y, z'
loop_
 _atom_site_type_symbol
 _atom_site_label
 _atom_site_symmetry_multiplicity
 _atom_site_fract_x
 _atom_site_fract_y
 _atom_site_fract_z
 _atom_site_fract_occupancy
 Na  Na1  1  0.50000  0.50000  0.00000  1
 Se  Se1  1  0.57446  0.17583  0.14892  1
 Se  Se2  1  0.08077  0.80216  0.16154  1
 Se  Se3  1  0.16004  0.49943  0.32008  1
 Se  Se4  1  0.23993  0.15655  0.47987  1
 Se  Se5  1  0.76007  0.84345  0.52013  1
 Se  Se6  1  0.83996  0.50057  0.67992  1
 Se  Se7  1  0.91923  0.19784  0.83846  1
 Se  Se8  1  0.42554  0.82417  0.85108  1
 Ti  Ti1  1  0.00000  0.00000  0.00000  1
 Ti  Ti2  1  0.64902  0.98549  0.29803  1
 Ti  Ti3  1  0.70918  0.34858  0.41836  1
 Ti  Ti4  1  0.29082  0.65142  0.58164  1
 Ti  Ti5  1  0.35098  0.01451  0.70197  1
