CIF file written using JARVIS-Tools package.
data_LaMnO3
_symmetry_space_group_name_H-M  'R-3c'
_cell_length_a       5.49831
_cell_length_b       5.49831
_cell_length_c       5.49831
_cell_angle_alpha    61.0583
_cell_angle_beta     61.0584
_cell_angle_gamma    61.0583

_symmetry_Int_Tables_number  167
_chemical_formula_structural  LaMnO3
_chemical_formula_sum  La2Mn2O6
_cell_volume  120.33743655107874
_cell_formula_units_Z  2
loop_
  _symmetry_equiv_pos_site_id
 _symmetry_equiv_pos_as_xyz
 1  'x, y, z'
loop_
 _atom_site_type_symbol
 _atom_site_label
 _atom_site_symmetry_multiplicity
 _atom_site_fract_x
 _atom_site_fract_y
 _atom_site_fract_z
 _atom_site_fract_occupancy
 La  La1  1  0.75000  0.75000  0.75000  1
 La  La2  1  0.25000  0.25000  0.25000  1
 Mn  Mn1  1  0.50000  0.50000  0.50000  1
 Mn  Mn2  1  0.00000  0.00000  0.00000  1
 O  O1  1  0.31359  0.75000  0.18641  1
 O  O2  1  0.75000  0.18641  0.31359  1
 O  O3  1  0.18641  0.31359  0.75000  1
 O  O4  1  0.68641  0.25000  0.81359  1
 O  O5  1  0.81359  0.68641  0.25000  1
 O  O6  1  0.25000  0.81359  0.68641  1
