CIF file written using JARVIS-Tools package.
data_Ru3Cl
_symmetry_space_group_name_H-M  'I4/mmm'
_cell_length_a       4.44505
_cell_length_b       4.44505
_cell_length_c       4.44505
_cell_angle_alpha    123.682
_cell_angle_beta     123.682
_cell_angle_gamma    83.7324

_symmetry_Int_Tables_number  139
_chemical_formula_structural  Ru3Cl
_chemical_formula_sum  Ru3Cl
_cell_volume  58.26518136417747
_cell_formula_units_Z  1
loop_
  _symmetry_equiv_pos_site_id
 _symmetry_equiv_pos_as_xyz
 1  'x, y, z'
loop_
 _atom_site_type_symbol
 _atom_site_label
 _atom_site_symmetry_multiplicity
 _atom_site_fract_x
 _atom_site_fract_y
 _atom_site_fract_z
 _atom_site_fract_occupancy
 Cl  Cl1  1  0.00000  0.00000  0.00000  1
 Ru  Ru1  1  0.75000  0.25000  0.50000  1
 Ru  Ru2  1  0.25000  0.75000  0.50000  1
 Ru  Ru3  1  0.50000  0.50000  0.00000  1
