CIF file written using JARVIS-Tools package.
data_CuHgO2
_symmetry_space_group_name_H-M  'C2/m'
_cell_length_a       3.0021
_cell_length_b       3.7766
_cell_length_c       5.70135
_cell_angle_alpha    82.3237
_cell_angle_beta     74.7352
_cell_angle_gamma    66.5805

_symmetry_Int_Tables_number  12
_chemical_formula_structural  CuHgO2
_chemical_formula_sum  CuHgO2
_cell_volume  57.19206982194728
_cell_formula_units_Z  1
loop_
  _symmetry_equiv_pos_site_id
 _symmetry_equiv_pos_as_xyz
 1  'x, y, z'
loop_
 _atom_site_type_symbol
 _atom_site_label
 _atom_site_symmetry_multiplicity
 _atom_site_fract_x
 _atom_site_fract_y
 _atom_site_fract_z
 _atom_site_fract_occupancy
 Cu  Cu1  1  0.50000  -0.00000  0.50000  1
 Hg  Hg1  1  -0.00000  0.50000  0.00000  1
 O  O1  1  0.93464  0.91244  0.71828  1
 O  O2  1  0.06536  0.08756  0.28172  1
