CIF file written using JARVIS-Tools package.
data_Mo2As3
_symmetry_space_group_name_H-M  'C2/m'
_cell_length_a       3.28513
_cell_length_b       6.9632
_cell_length_c       8.26312
_cell_angle_alpha    79.0765
_cell_angle_beta     78.5343
_cell_angle_gamma    76.3558

_symmetry_Int_Tables_number  12
_chemical_formula_structural  Mo2As3
_chemical_formula_sum  Mo4As6
_cell_volume  177.98956747971806
_cell_formula_units_Z  2
loop_
  _symmetry_equiv_pos_site_id
 _symmetry_equiv_pos_as_xyz
 1  'x, y, z'
loop_
 _atom_site_type_symbol
 _atom_site_label
 _atom_site_symmetry_multiplicity
 _atom_site_fract_x
 _atom_site_fract_y
 _atom_site_fract_z
 _atom_site_fract_occupancy
 As  As1  1  0.12834  0.79069  0.95264  1
 As  As2  1  0.87166  0.20931  0.04736  1
 As  As3  1  0.41436  0.85758  0.31371  1
 As  As4  1  0.58564  0.14242  0.68629  1
 As  As5  1  0.10559  0.41889  0.36993  1
 As  As6  1  0.89441  0.58111  0.63007  1
 Mo  Mo1  1  0.24790  0.87681  0.62740  1
 Mo  Mo2  1  0.75210  0.12319  0.37260  1
 Mo  Mo3  1  0.35012  0.43312  0.86663  1
 Mo  Mo4  1  0.64988  0.56688  0.13337  1
