data_image0
_chemical_formula_structural       Br4I2PdRb2
_chemical_formula_sum              "Br4 I2 Pd1 Rb2"
_cell_length_a       7.47074
_cell_length_b       7.47074
_cell_length_c       7.47074
_cell_angle_alpha    106.458
_cell_angle_beta     110.998
_cell_angle_gamma    110.998

_space_group_name_H-M_alt    "P 1"
_space_group_IT_number       1

loop_
  _space_group_symop_operation_xyz
  'x, y, z'

loop_
  _atom_site_type_symbol
  _atom_site_label
  _atom_site_symmetry_multiplicity
  _atom_site_fract_x
  _atom_site_fract_y
  _atom_site_fract_z
  _atom_site_occupancy
  Br  Br1       1.0  0.41400  0.20700  0.20700  1.0000
  Br  Br2       1.0  0.00000  0.79300  0.20700  1.0000
  Br  Br3       1.0  0.00000  0.20700  0.79300  1.0000
  Br  Br4       1.0  0.58600  0.79300  0.79300  1.0000
  I   I1        1.0  0.00000  0.33800  0.33800  1.0000
  I   I2        1.0  0.00000  0.66200  0.66200  1.0000
  Pd  Pd1       1.0  0.00000  0.00000  0.00000  1.0000
  Rb  Rb1       1.0  0.50000  0.75000  0.25000  1.0000
  Rb  Rb2       1.0  0.50000  0.25000  0.75000  1.0000
