CIF file written using JARVIS-Tools package.
data_HfAlPt
_symmetry_space_group_name_H-M  'P-62c'
_cell_length_a       7.10306
_cell_length_b       7.10306
_cell_length_c       7.23934
_cell_angle_alpha    90
_cell_angle_beta     90
_cell_angle_gamma    120

_symmetry_Int_Tables_number  190
_chemical_formula_structural  HfAlPt
_chemical_formula_sum  Hf6Al6Pt6
_cell_volume  316.31602811560026
_cell_formula_units_Z  6
loop_
  _symmetry_equiv_pos_site_id
 _symmetry_equiv_pos_as_xyz
 1  'x, y, z'
loop_
 _atom_site_type_symbol
 _atom_site_label
 _atom_site_symmetry_multiplicity
 _atom_site_fract_x
 _atom_site_fract_y
 _atom_site_fract_z
 _atom_site_fract_occupancy
 Al  Al1  1  -0.00000  0.74019  0.50000  1
 Al  Al2  1  -0.00000  0.74019  0.00000  1
 Al  Al3  1  0.25981  0.25981  0.50000  1
 Al  Al4  1  0.25981  0.25981  0.00000  1
 Al  Al5  1  0.74019  -0.00000  0.00000  1
 Al  Al6  1  0.74019  -0.00000  0.50000  1
 Hf  Hf1  1  0.41222  0.02023  0.75000  1
 Hf  Hf2  1  0.58778  0.60801  0.25000  1
 Hf  Hf3  1  0.02023  0.41222  0.25000  1
 Hf  Hf4  1  0.60801  0.58778  0.75000  1
 Hf  Hf5  1  0.39199  0.97977  0.25000  1
 Hf  Hf6  1  0.97977  0.39199  0.75000  1
 Pt  Pt1  1  0.33333  0.66667  0.97313  1
 Pt  Pt2  1  0.33333  0.66667  0.52687  1
 Pt  Pt3  1  0.66667  0.33333  0.47313  1
 Pt  Pt4  1  0.00000  0.00000  0.75000  1
 Pt  Pt5  1  0.66667  0.33333  0.02687  1
 Pt  Pt6  1  0.00000  0.00000  0.25000  1
