CIF file written using JARVIS-Tools package.
data_Hg
_symmetry_space_group_name_H-M  'Im-3m'
_cell_length_a       3.31535
_cell_length_b       3.31535
_cell_length_c       3.31534
_cell_angle_alpha    109.473
_cell_angle_beta     109.473
_cell_angle_gamma    109.473

_symmetry_Int_Tables_number  229
_chemical_formula_structural  Hg
_chemical_formula_sum  Hg
_cell_volume  28.05007231412624
_cell_formula_units_Z  1
loop_
  _symmetry_equiv_pos_site_id
 _symmetry_equiv_pos_as_xyz
 1  'x, y, z'
loop_
 _atom_site_type_symbol
 _atom_site_label
 _atom_site_symmetry_multiplicity
 _atom_site_fract_x
 _atom_site_fract_y
 _atom_site_fract_z
 _atom_site_fract_occupancy
 Hg  Hg1  1  0.33333  1.00000  0.66667  1
