CIF file written using JARVIS-Tools package.
data_K2O
_symmetry_space_group_name_H-M  'Immm'
_cell_length_a       4.50593
_cell_length_b       4.52412
_cell_length_c       6.38171
_cell_angle_alpha    90
_cell_angle_beta     90
_cell_angle_gamma    90

_symmetry_Int_Tables_number  71
_chemical_formula_structural  K2O
_chemical_formula_sum  K4O2
_cell_volume  130.0936998977821
_cell_formula_units_Z  2
loop_
  _symmetry_equiv_pos_site_id
 _symmetry_equiv_pos_as_xyz
 1  'x, y, z'
loop_
 _atom_site_type_symbol
 _atom_site_label
 _atom_site_symmetry_multiplicity
 _atom_site_fract_x
 _atom_site_fract_y
 _atom_site_fract_z
 _atom_site_fract_occupancy
 K  K1  1  0.50000  0.00006  0.74985  1
 K  K2  1  0.00000  0.50006  0.75015  1
 K  K3  1  0.00000  0.49994  0.24985  1
 K  K4  1  0.50000  0.99994  0.25015  1
 O  O1  1  0.00000  0.00000  0.00000  1
 O  O2  1  0.50000  0.50000  0.50000  1
