CIF file written using JARVIS-Tools package.
data_BaSn3Pd
_symmetry_space_group_name_H-M  'I4mm'
_cell_length_a       4.97187
_cell_length_b       4.97187
_cell_length_c       6.64827
_cell_angle_alpha    111.958
_cell_angle_beta     111.958
_cell_angle_gamma    90

_symmetry_Int_Tables_number  107
_chemical_formula_structural  BaSn3Pd
_chemical_formula_sum  BaSn3Pd
_cell_volume  139.48406870815967
_cell_formula_units_Z  1
loop_
  _symmetry_equiv_pos_site_id
 _symmetry_equiv_pos_as_xyz
 1  'x, y, z'
loop_
 _atom_site_type_symbol
 _atom_site_label
 _atom_site_symmetry_multiplicity
 _atom_site_fract_x
 _atom_site_fract_y
 _atom_site_fract_z
 _atom_site_fract_occupancy
 Ba  Ba1  1  0.00022  0.00022  0.00044  1
 Pd  Pd1  1  0.65006  0.65006  0.30013  1
 Sn  Sn1  1  0.74943  0.24943  0.49887  1
 Sn  Sn2  1  0.41285  0.41285  0.82570  1
 Sn  Sn3  1  0.24943  0.74943  0.49887  1
