CIF file written using JARVIS-Tools package.
data_BaNb10SiO19
_symmetry_space_group_name_H-M  'P6_3'
_cell_length_a       7.86004
_cell_length_b       7.86004
_cell_length_c       14.6289
_cell_angle_alpha    90
_cell_angle_beta     90
_cell_angle_gamma    120

_symmetry_Int_Tables_number  173
_chemical_formula_structural  BaNb10SiO19
_chemical_formula_sum  Ba2Nb20Si2O38
_cell_volume  782.6905257318689
_cell_formula_units_Z  2
loop_
  _symmetry_equiv_pos_site_id
 _symmetry_equiv_pos_as_xyz
 1  'x, y, z'
loop_
 _atom_site_type_symbol
 _atom_site_label
 _atom_site_symmetry_multiplicity
 _atom_site_fract_x
 _atom_site_fract_y
 _atom_site_fract_z
 _atom_site_fract_occupancy
 Ba  Ba1  1  0.66667  0.33333  0.59221  1
 Ba  Ba2  1  0.33333  0.66667  0.09221  1
 Nb  Nb1  1  0.77170  0.81931  0.67324  1
 Nb  Nb2  1  0.31098  0.44697  0.50119  1
 Nb  Nb3  1  0.47628  0.36360  0.83892  1
 Nb  Nb4  1  0.55303  0.86401  0.50119  1
 Nb  Nb5  1  0.13599  0.68902  0.50119  1
 Nb  Nb6  1  0.36360  0.88732  0.33892  1
 Nb  Nb7  1  0.66667  0.33333  0.33277  1
 Nb  Nb8  1  0.88732  0.52372  0.83892  1
 Nb  Nb9  1  0.11268  0.47628  0.33892  1
 Nb  Nb10  1  0.81931  0.04760  0.17324  1
 Nb  Nb11  1  0.63640  0.11268  0.83892  1
 Nb  Nb12  1  0.95240  0.77170  0.17324  1
 Nb  Nb13  1  0.86401  0.31098  0.00119  1
 Nb  Nb14  1  0.33333  0.66667  0.83277  1
 Nb  Nb15  1  0.52372  0.63640  0.33892  1
 Nb  Nb16  1  0.44697  0.13599  0.00119  1
 Nb  Nb17  1  0.04760  0.22830  0.67324  1
 Nb  Nb18  1  0.18069  0.95240  0.67324  1
 Nb  Nb19  1  0.68902  0.55303  0.00119  1
 Nb  Nb20  1  0.22830  0.18069  0.17324  1
 O  O1  1  0.30018  0.43482  0.25273  1
 O  O2  1  0.15209  0.92453  0.41990  1
 O  O3  1  0.56518  0.86537  0.25273  1
 O  O4  1  0.22756  0.15209  0.91990  1
 O  O5  1  0.00000  0.00000  0.27599  1
 O  O6  1  0.43482  0.13463  0.75273  1
 O  O7  1  0.69982  0.56518  0.75273  1
 O  O8  1  0.77244  0.84791  0.41990  1
 O  O9  1  0.45613  0.36261  0.08239  1
 O  O10  1  0.89977  0.49639  0.42063  1
 O  O11  1  0.40338  0.89977  0.92063  1
 O  O12  1  0.10023  0.50361  0.92063  1
 O  O13  1  0.79500  0.05247  0.59670  1
 O  O14  1  0.15663  0.73258  0.76113  1
 O  O15  1  0.74253  0.79500  0.09670  1
 O  O16  1  0.54387  0.63739  0.58239  1
 O  O17  1  0.36261  0.90649  0.58239  1
 O  O18  1  0.86537  0.30018  0.75273  1
 O  O19  1  0.50361  0.40338  0.42063  1
 O  O20  1  0.20500  0.94753  0.09670  1
 O  O21  1  0.63739  0.09351  0.08239  1
 O  O22  1  0.00000  0.00000  0.77599  1
 O  O23  1  0.90649  0.54387  0.08239  1
 O  O24  1  0.25747  0.20500  0.59670  1
 O  O25  1  0.84337  0.26742  0.26113  1
 O  O26  1  0.42405  0.15663  0.26113  1
 O  O27  1  0.94753  0.74253  0.59670  1
 O  O28  1  0.73258  0.57595  0.26113  1
 O  O29  1  0.92453  0.77244  0.91990  1
 O  O30  1  0.49639  0.59662  0.92063  1
 O  O31  1  0.13463  0.69982  0.25273  1
 O  O32  1  0.26742  0.42405  0.76113  1
 O  O33  1  0.84791  0.07547  0.91990  1
 O  O34  1  0.57595  0.84337  0.76113  1
 O  O35  1  0.05247  0.25747  0.09670  1
 O  O36  1  0.07547  0.22756  0.41990  1
 O  O37  1  0.09351  0.45613  0.58239  1
 O  O38  1  0.59662  0.10023  0.42063  1
 Si  Si1  1  0.00000  0.00000  0.39023  1
 Si  Si2  1  0.00000  0.00000  0.89023  1
