CIF file written using JARVIS-Tools package.
data_MoW3S8
_symmetry_space_group_name_H-M  'P3m1'
_cell_length_a       3.19297
_cell_length_b       3.19297
_cell_length_c       32.3313
_cell_angle_alpha    90.0116
_cell_angle_beta     90
_cell_angle_gamma    120

_symmetry_Int_Tables_number  156
_chemical_formula_structural  MoW3S8
_chemical_formula_sum  MoW3S8
_cell_volume  285.458498915289
_cell_formula_units_Z  1
loop_
  _symmetry_equiv_pos_site_id
 _symmetry_equiv_pos_as_xyz
 1  'x, y, z'
loop_
 _atom_site_type_symbol
 _atom_site_label
 _atom_site_symmetry_multiplicity
 _atom_site_fract_x
 _atom_site_fract_y
 _atom_site_fract_z
 _atom_site_fract_occupancy
 Mo  Mo1  1  0.66624  0.33248  0.27889  1
 S  S1  1  0.33298  0.66596  0.32733  1
 S  S2  1  0.33359  0.66717  0.71524  1
 S  S3  1  0.66655  0.33311  0.03670  1
 S  S4  1  0.66697  0.33394  0.42336  1
 S  S5  1  0.66664  0.33328  0.13412  1
 S  S6  1  0.66707  0.33414  0.52083  1
 S  S7  1  0.33284  0.66567  0.23045  1
 S  S8  1  0.33337  0.66673  0.61781  1
 W  W1  1  0.33324  0.66648  0.08539  1
 W  W2  1  0.33370  0.66740  0.47209  1
 W  W3  1  0.66682  0.33364  0.66654  1
