CIF file written using JARVIS-Tools package.
data_Te4Mo3S2
_symmetry_space_group_name_H-M  'R3m'
_cell_length_a       3.43716
_cell_length_b       3.4372
_cell_length_c       20.5412
_cell_angle_alpha    85.1853
_cell_angle_beta     94.8134
_cell_angle_gamma    120.001

_symmetry_Int_Tables_number  160
_chemical_formula_structural  Te4Mo3S2
_chemical_formula_sum  Te4Mo3S2
_cell_volume  209.1751657384643
_cell_formula_units_Z  1
loop_
  _symmetry_equiv_pos_site_id
 _symmetry_equiv_pos_as_xyz
 1  'x, y, z'
loop_
 _atom_site_type_symbol
 _atom_site_label
 _atom_site_symmetry_multiplicity
 _atom_site_fract_x
 _atom_site_fract_y
 _atom_site_fract_z
 _atom_site_fract_occupancy
 Mo  Mo1  1  0.22225  0.77843  0.01257  1
 Mo  Mo2  1  0.44830  0.55134  0.69208  1
 Mo  Mo3  1  0.66276  0.33684  0.33629  1
 S  S1  1  0.53119  0.46951  0.93966  1
 S  S2  1  0.58001  0.42065  0.08559  1
 Te  Te1  1  0.35991  0.63967  0.42743  1
 Te  Te2  1  0.75113  0.24853  0.60093  1
 Te  Te3  1  0.81212  0.18750  0.78321  1
 Te  Te4  1  0.29893  0.70071  0.24508  1
