CIF file written using JARVIS-Tools package.
data_SrTcN3
_symmetry_space_group_name_H-M  'C2/c'
_cell_length_a       6.10174
_cell_length_b       7.52225
_cell_length_c       7.52225
_cell_angle_alpha    92.459
_cell_angle_beta     100.869
_cell_angle_gamma    79.1308

_symmetry_Int_Tables_number  15
_chemical_formula_structural  SrTcN3
_chemical_formula_sum  Sr4Tc4N2
_cell_volume  332.9761610143452
_cell_formula_units_Z  4
loop_
  _symmetry_equiv_pos_site_id
 _symmetry_equiv_pos_as_xyz
 1  'x, y, z'
loop_
 _atom_site_type_symbol
 _atom_site_label
 _atom_site_symmetry_multiplicity
 _atom_site_fract_x
 _atom_site_fract_y
 _atom_site_fract_z
 _atom_site_fract_occupancy
 N  N1  1  0.49083  0.67980  0.37200  1
 N  N2  1  0.00917  0.37200  0.67980  1
 N  N3  1  0.33566  0.40690  0.13047  1
 N  N4  1  0.33346  0.01236  0.76604  1
 N  N5  1  0.66434  0.59310  0.86953  1
 N  N6  1  0.66654  0.98764  0.23396  1
 N  N7  1  0.50917  0.32020  0.62800  1
 N  N8  1  0.16654  0.76604  0.01236  1
 N  N9  1  -0.00917  0.62800  0.32020  1
 N  N10  1  0.16434  0.13047  0.40690  1
 N  N11  1  0.83566  0.86953  0.59310  1
 N  N12  1  0.83346  0.23396  0.98764  1
 Sr  Sr1  1  0.75000  0.90795  0.90795  1
 Sr  Sr2  1  0.25000  0.67164  0.67164  1
 Sr  Sr3  1  0.25000  0.09205  0.09205  1
 Sr  Sr4  1  0.75000  0.32836  0.32836  1
 Tc  Tc1  1  0.25802  0.20038  0.62348  1
 Tc  Tc2  1  0.24198  0.62348  0.20038  1
 Tc  Tc3  1  0.75802  0.37652  0.79962  1
 Tc  Tc4  1  0.74198  0.79962  0.37652  1
