CIF file written using JARVIS-Tools package.
data_Tb2ZnNi2
_symmetry_space_group_name_H-M  'Immm'
_cell_length_a       4.21045
_cell_length_b       5.29881
_cell_length_c       5.29882
_cell_angle_alpha    61.4487
_cell_angle_beta     66.5905
_cell_angle_gamma    66.5904

_symmetry_Int_Tables_number  71
_chemical_formula_structural  Tb2ZnNi2
_chemical_formula_sum  Tb2ZnNi2
_cell_volume  92.0860877133961
_cell_formula_units_Z  1
loop_
  _symmetry_equiv_pos_site_id
 _symmetry_equiv_pos_as_xyz
 1  'x, y, z'
loop_
 _atom_site_type_symbol
 _atom_site_label
 _atom_site_symmetry_multiplicity
 _atom_site_fract_x
 _atom_site_fract_y
 _atom_site_fract_z
 _atom_site_fract_occupancy
 Ni  Ni1  1  0.50000  0.27312  0.72688  1
 Ni  Ni2  1  0.50000  0.72688  0.27312  1
 Tb  Tb1  1  0.79592  0.70408  0.70408  1
 Tb  Tb2  1  0.20408  0.29592  0.29592  1
 Zn  Zn1  1  0.00000  0.00000  0.00000  1
