CIF file written using JARVIS-Tools package.
data_Ti3O
_symmetry_space_group_name_H-M  'P-31c'
_cell_length_a       5.14034
_cell_length_b       5.14034
_cell_length_c       9.49385
_cell_angle_alpha    90
_cell_angle_beta     90
_cell_angle_gamma    120

_symmetry_Int_Tables_number  163
_chemical_formula_structural  Ti3O
_chemical_formula_sum  Ti2O4
_cell_volume  217.24766519992696
_cell_formula_units_Z  4
loop_
  _symmetry_equiv_pos_site_id
 _symmetry_equiv_pos_as_xyz
 1  'x, y, z'
loop_
 _atom_site_type_symbol
 _atom_site_label
 _atom_site_symmetry_multiplicity
 _atom_site_fract_x
 _atom_site_fract_y
 _atom_site_fract_z
 _atom_site_fract_occupancy
 O  O1  1  0.33333  0.66667  0.25000  1
 O  O2  1  0.66667  0.33333  0.75000  1
 O  O3  1  0.00000  0.00000  0.25000  1
 O  O4  1  0.00000  0.00000  0.75000  1
 Ti  Ti1  1  0.67138  0.66638  0.61702  1
 Ti  Ti2  1  0.33362  0.00500  0.61702  1
 Ti  Ti3  1  0.66638  0.67138  0.11702  1
 Ti  Ti4  1  0.00500  0.33362  0.11702  1
 Ti  Ti5  1  0.32862  0.99500  0.11702  1
 Ti  Ti6  1  0.00500  0.67138  0.38298  1
 Ti  Ti7  1  0.32862  0.33362  0.38298  1
 Ti  Ti8  1  0.66638  0.99500  0.38298  1
 Ti  Ti9  1  0.99500  0.32862  0.61702  1
 Ti  Ti10  1  0.67138  0.00500  0.88298  1
 Ti  Ti11  1  0.99500  0.66638  0.88298  1
 Ti  Ti12  1  0.33362  0.32862  0.88298  1
