CIF file written using JARVIS-Tools package.
data_ScCuSn
_symmetry_space_group_name_H-M  'P6_3mc'
_cell_length_a       4.40254
_cell_length_b       4.40254
_cell_length_c       6.88443
_cell_angle_alpha    90
_cell_angle_beta     90
_cell_angle_gamma    120

_symmetry_Int_Tables_number  186
_chemical_formula_structural  ScCuSn
_chemical_formula_sum  Sc2Cu2Sn2
_cell_volume  115.55906365775394
_cell_formula_units_Z  2
loop_
  _symmetry_equiv_pos_site_id
 _symmetry_equiv_pos_as_xyz
 1  'x, y, z'
loop_
 _atom_site_type_symbol
 _atom_site_label
 _atom_site_symmetry_multiplicity
 _atom_site_fract_x
 _atom_site_fract_y
 _atom_site_fract_z
 _atom_site_fract_occupancy
 Cu  Cu1  1  0.33333  0.66667  0.17031  1
 Cu  Cu2  1  0.66667  0.33333  0.67031  1
 Sc  Sc1  1  0.00000  0.00000  0.00261  1
 Sc  Sc2  1  0.00000  0.00000  0.50261  1
 Sn  Sn1  1  0.33333  0.66667  0.77147  1
 Sn  Sn2  1  0.66667  0.33333  0.27147  1
