CIF file written using JARVIS-Tools package.
data_PrGe3Rh
_symmetry_space_group_name_H-M  'I4mm'
_cell_length_a       4.45276
_cell_length_b       4.45276
_cell_length_c       5.95972
_cell_angle_alpha    111.936
_cell_angle_beta     111.936
_cell_angle_gamma    90.0001

_symmetry_Int_Tables_number  107
_chemical_formula_structural  PrGe3Rh
_chemical_formula_sum  PrGe3Rh
_cell_volume  100.32693423496994
_cell_formula_units_Z  1
loop_
  _symmetry_equiv_pos_site_id
 _symmetry_equiv_pos_as_xyz
 1  'x, y, z'
loop_
 _atom_site_type_symbol
 _atom_site_label
 _atom_site_symmetry_multiplicity
 _atom_site_fract_x
 _atom_site_fract_y
 _atom_site_fract_z
 _atom_site_fract_occupancy
 Ge  Ge1  1  0.26034  0.76034  0.52067  1
 Ge  Ge2  1  0.76034  0.26034  0.52067  1
 Ge  Ge3  1  0.42007  0.42007  0.84014  1
 Pr  Pr1  1  0.99816  0.99816  0.99633  1
 Rh  Rh1  1  0.65772  0.65772  0.31543  1
