CIF file written using JARVIS-Tools package.
data_YGa2Ni
_symmetry_space_group_name_H-M  'Cmcm'
_cell_length_a       4.13958
_cell_length_b       5.45462
_cell_length_c       6.61369
_cell_angle_alpha    90
_cell_angle_beta     90
_cell_angle_gamma    112.3

_symmetry_Int_Tables_number  63
_chemical_formula_structural  YGa2Ni
_chemical_formula_sum  Y2Ga4Ni2
_cell_volume  138.16711253541462
_cell_formula_units_Z  2
loop_
  _symmetry_equiv_pos_site_id
 _symmetry_equiv_pos_as_xyz
 1  'x, y, z'
loop_
 _atom_site_type_symbol
 _atom_site_label
 _atom_site_symmetry_multiplicity
 _atom_site_fract_x
 _atom_site_fract_y
 _atom_site_fract_z
 _atom_site_fract_occupancy
 Ga  Ga1  1  0.35795  0.71590  0.94613  1
 Ga  Ga2  1  0.35795  0.71590  0.55387  1
 Ga  Ga3  1  0.64205  0.28410  0.05387  1
 Ga  Ga4  1  0.64205  0.28410  0.44613  1
 Ni  Ni1  1  0.79098  0.58195  0.75000  1
 Ni  Ni2  1  0.20902  0.41805  0.25000  1
 Y  Y1  1  0.07364  0.14728  0.75000  1
 Y  Y2  1  0.92636  0.85272  0.25000  1
