CIF file written using JARVIS-Tools package.
data_KO2
_symmetry_space_group_name_H-M  'Pa-3'
_cell_length_a       6.12822
_cell_length_b       6.12822
_cell_length_c       6.12822
_cell_angle_alpha    90
_cell_angle_beta     90
_cell_angle_gamma    90

_symmetry_Int_Tables_number  205
_chemical_formula_structural  KO2
_chemical_formula_sum  K4O8
_cell_volume  230.1453892689987
_cell_formula_units_Z  4
loop_
  _symmetry_equiv_pos_site_id
 _symmetry_equiv_pos_as_xyz
 1  'x, y, z'
loop_
 _atom_site_type_symbol
 _atom_site_label
 _atom_site_symmetry_multiplicity
 _atom_site_fract_x
 _atom_site_fract_y
 _atom_site_fract_z
 _atom_site_fract_occupancy
 K  K1  1  0.00000  0.50000  0.50000  1
 K  K2  1  0.50000  0.50000  0.00000  1
 K  K3  1  0.50000  0.00000  0.50000  1
 K  K4  1  0.00000  0.00000  0.00000  1
 O  O1  1  0.43608  0.06392  0.93608  1
 O  O2  1  0.06392  0.93608  0.43608  1
 O  O3  1  0.93608  0.43608  0.06392  1
 O  O4  1  0.56392  0.56392  0.56392  1
 O  O5  1  0.43608  0.43608  0.43608  1
 O  O6  1  0.06392  0.56392  0.93608  1
 O  O7  1  0.93608  0.06392  0.56392  1
 O  O8  1  0.56392  0.93608  0.06392  1
