CIF file written using JARVIS-Tools package.
data_OF3
_symmetry_space_group_name_H-M  'P1'
_cell_length_a       3.43195
_cell_length_b       5.21931
_cell_length_c       7.30709
_cell_angle_alpha    59.0243
_cell_angle_beta     84.7211
_cell_angle_gamma    81.0103

_symmetry_Int_Tables_number  1
_chemical_formula_structural  OF3
_chemical_formula_sum  O2F6
_cell_volume  110.83223044638478
_cell_formula_units_Z  2
loop_
  _symmetry_equiv_pos_site_id
 _symmetry_equiv_pos_as_xyz
 1  'x, y, z'
loop_
 _atom_site_type_symbol
 _atom_site_label
 _atom_site_symmetry_multiplicity
 _atom_site_fract_x
 _atom_site_fract_y
 _atom_site_fract_z
 _atom_site_fract_occupancy
 F  F1  1  0.63459  0.27696  0.13638  1
 F  F2  1  0.71615  0.32035  0.48802  1
 F  F3  1  0.92498  0.70016  0.18231  1
 F  F4  1  0.33224  0.80847  0.74410  1
 F  F5  1  0.19784  0.81058  0.49027  1
 F  F6  1  0.24058  0.22136  0.85400  1
 O  O1  1  -0.04423  0.38003  0.30551  1
 O  O2  1  -0.00213  0.48209  0.79941  1
