CIF file written using JARVIS-Tools package.
data_ReBr
_symmetry_space_group_name_H-M  'P6_3mc'
_cell_length_a       3.06352
_cell_length_b       3.06352
_cell_length_c       8.88358
_cell_angle_alpha    90
_cell_angle_beta     90
_cell_angle_gamma    120

_symmetry_Int_Tables_number  186
_chemical_formula_structural  ReBr
_chemical_formula_sum  Re2Br2
_cell_volume  72.20423229130574
_cell_formula_units_Z  2
loop_
  _symmetry_equiv_pos_site_id
 _symmetry_equiv_pos_as_xyz
 1  'x, y, z'
loop_
 _atom_site_type_symbol
 _atom_site_label
 _atom_site_symmetry_multiplicity
 _atom_site_fract_x
 _atom_site_fract_y
 _atom_site_fract_z
 _atom_site_fract_occupancy
 Br  Br1  1  0.33333  0.66667  0.05072  1
 Br  Br2  1  0.66667  0.33333  0.55072  1
 Re  Re1  1  0.33333  0.66667  0.32428  1
 Re  Re2  1  0.66667  0.33333  0.82428  1
