CIF file written using JARVIS-Tools package.
data_Al2BiSe4
_symmetry_space_group_name_H-M  'P4/nnc'
_cell_length_a       7.83684
_cell_length_b       7.83684
_cell_length_c       12.5833
_cell_angle_alpha    90
_cell_angle_beta     90
_cell_angle_gamma    90

_symmetry_Int_Tables_number  126
_chemical_formula_structural  Al2BiSe4
_chemical_formula_sum  Al8Bi4Se6
_cell_volume  772.8145401573761
_cell_formula_units_Z  4
loop_
  _symmetry_equiv_pos_site_id
 _symmetry_equiv_pos_as_xyz
 1  'x, y, z'
loop_
 _atom_site_type_symbol
 _atom_site_label
 _atom_site_symmetry_multiplicity
 _atom_site_fract_x
 _atom_site_fract_y
 _atom_site_fract_z
 _atom_site_fract_occupancy
 Al  Al1  1  0.00000  0.50000  0.75000  1
 Al  Al2  1  0.00000  0.50000  0.00000  1
 Al  Al3  1  0.00000  0.50000  0.25000  1
 Al  Al4  1  0.50000  0.00000  0.50000  1
 Al  Al5  1  0.50000  0.00000  0.25000  1
 Al  Al6  1  0.50000  0.00000  0.75000  1
 Al  Al7  1  0.00000  0.50000  0.50000  1
 Al  Al8  1  0.50000  0.00000  0.00000  1
 Bi  Bi1  1  0.00000  0.00000  0.87368  1
 Bi  Bi2  1  0.50000  0.50000  0.62632  1
 Bi  Bi3  1  0.50000  0.50000  0.37368  1
 Bi  Bi4  1  0.00000  0.00000  0.12632  1
 Se  Se1  1  0.34055  0.17315  0.87530  1
 Se  Se2  1  0.15945  0.32685  0.62470  1
 Se  Se3  1  0.84055  0.32685  0.37530  1
 Se  Se4  1  0.65945  0.82685  0.87530  1
 Se  Se5  1  0.32685  0.84055  0.62470  1
 Se  Se6  1  0.17315  0.34055  0.12470  1
 Se  Se7  1  0.32685  0.15945  0.37530  1
 Se  Se8  1  0.15945  0.67315  0.37530  1
 Se  Se9  1  0.82685  0.65945  0.12470  1
 Se  Se10  1  0.67315  0.15945  0.62470  1
 Se  Se11  1  0.17315  0.65945  0.87530  1
 Se  Se12  1  0.67315  0.84055  0.37530  1
 Se  Se13  1  0.34055  0.82685  0.12470  1
 Se  Se14  1  0.84055  0.67315  0.62470  1
 Se  Se15  1  0.82685  0.34055  0.87530  1
 Se  Se16  1  0.65945  0.17315  0.12470  1
