CIF file written using JARVIS-Tools package.
data_Ni3Mo
_symmetry_space_group_name_H-M  'Pmmn'
_cell_length_a       4.23862
_cell_length_b       4.46435
_cell_length_c       5.03163
_cell_angle_alpha    90
_cell_angle_beta     90
_cell_angle_gamma    90

_symmetry_Int_Tables_number  59
_chemical_formula_structural  Ni3Mo
_chemical_formula_sum  Ni6Mo2
_cell_volume  95.21189848218316
_cell_formula_units_Z  2
loop_
  _symmetry_equiv_pos_site_id
 _symmetry_equiv_pos_as_xyz
 1  'x, y, z'
loop_
 _atom_site_type_symbol
 _atom_site_label
 _atom_site_symmetry_multiplicity
 _atom_site_fract_x
 _atom_site_fract_y
 _atom_site_fract_z
 _atom_site_fract_occupancy
 Mo  Mo1  1  0.50000  0.65560  0.50000  1
 Mo  Mo2  1  0.00000  0.34440  0.00000  1
 Ni  Ni1  1  0.50000  0.16045  0.75126  1
 Ni  Ni2  1  0.00000  0.83955  0.74874  1
 Ni  Ni3  1  0.50000  0.66503  0.00000  1
 Ni  Ni4  1  0.00000  0.33497  0.50000  1
 Ni  Ni5  1  0.00000  0.83955  0.25126  1
 Ni  Ni6  1  0.50000  0.16045  0.24874  1
