CIF file written using JARVIS-Tools package.
data_KO
_symmetry_space_group_name_H-M  'P-62m'
_cell_length_a       7.02911
_cell_length_b       7.02911
_cell_length_c       5.05973
_cell_angle_alpha    90
_cell_angle_beta     90
_cell_angle_gamma    120

_symmetry_Int_Tables_number  189
_chemical_formula_structural  KO
_chemical_formula_sum  K6O6
_cell_volume  216.5006544100226
_cell_formula_units_Z  6
loop_
  _symmetry_equiv_pos_site_id
 _symmetry_equiv_pos_as_xyz
 1  'x, y, z'
loop_
 _atom_site_type_symbol
 _atom_site_label
 _atom_site_symmetry_multiplicity
 _atom_site_fract_x
 _atom_site_fract_y
 _atom_site_fract_z
 _atom_site_fract_occupancy
 K  K1  1  0.29215  -0.00000  0.50000  1
 K  K2  1  0.70785  0.70785  0.50000  1
 K  K3  1  -0.00000  0.29215  0.50000  1
 K  K4  1  0.62963  -0.00000  0.00000  1
 K  K5  1  0.37037  0.37037  0.00000  1
 K  K6  1  -0.00000  0.62963  0.00000  1
 O  O1  1  0.66667  0.33333  0.65301  1
 O  O2  1  0.66667  0.33333  0.34699  1
 O  O3  1  0.33333  0.66667  0.34699  1
 O  O4  1  0.33333  0.66667  0.65301  1
 O  O5  1  0.00000  0.00000  0.15091  1
 O  O6  1  0.00000  0.00000  0.84909  1
