CIF file written using JARVIS-Tools package.
data_ThB4Mo
_symmetry_space_group_name_H-M  'Cmmm'
_cell_length_a       3.80645
_cell_length_b       6.1084
_cell_length_c       6.1084
_cell_angle_alpha    104.181
_cell_angle_beta     90
_cell_angle_gamma    90

_symmetry_Int_Tables_number  65
_chemical_formula_structural  ThB4Mo
_chemical_formula_sum  Th2B8Mo2
_cell_volume  137.70001776904894
_cell_formula_units_Z  2
loop_
  _symmetry_equiv_pos_site_id
 _symmetry_equiv_pos_as_xyz
 1  'x, y, z'
loop_
 _atom_site_type_symbol
 _atom_site_label
 _atom_site_symmetry_multiplicity
 _atom_site_fract_x
 _atom_site_fract_y
 _atom_site_fract_z
 _atom_site_fract_occupancy
 B  B1  1  0.50000  0.91034  0.08966  1
 B  B2  1  0.50000  0.08966  0.91034  1
 B  B3  1  0.50000  0.62896  0.62896  1
 B  B4  1  0.50000  0.37104  0.37104  1
 B  B5  1  0.50000  0.37674  0.06484  1
 B  B6  1  0.50000  0.62326  0.93516  1
 B  B7  1  0.50000  0.06484  0.37674  1
 B  B8  1  0.50000  0.93516  0.62326  1
 Mo  Mo1  1  0.00000  0.82832  0.82832  1
 Mo  Mo2  1  0.00000  0.17168  0.17168  1
 Th  Th1  1  0.00000  0.69811  0.30189  1
 Th  Th2  1  0.00000  0.30189  0.69811  1
