CIF file written using JARVIS-Tools package.
data_ThGe2
_symmetry_space_group_name_H-M  'I4_1/amd'
_cell_length_a       4.05978
_cell_length_b       4.05979
_cell_length_c       8.97281
_cell_angle_alpha    103.075
_cell_angle_beta     103.075
_cell_angle_gamma    90

_symmetry_Int_Tables_number  141
_chemical_formula_structural  ThGe2
_chemical_formula_sum  Th2Ge4
_cell_volume  140.11565595867228
_cell_formula_units_Z  2
loop_
  _symmetry_equiv_pos_site_id
 _symmetry_equiv_pos_as_xyz
 1  'x, y, z'
loop_
 _atom_site_type_symbol
 _atom_site_label
 _atom_site_symmetry_multiplicity
 _atom_site_fract_x
 _atom_site_fract_y
 _atom_site_fract_z
 _atom_site_fract_occupancy
 Ge  Ge1  1  0.70467  0.95467  0.90934  1
 Ge  Ge2  1  0.45467  0.20467  0.40934  1
 Ge  Ge3  1  0.54533  0.79533  0.59066  1
 Ge  Ge4  1  0.29533  0.04533  0.09066  1
 Th  Th1  1  0.87500  0.62500  0.25000  1
 Th  Th2  1  0.12500  0.37500  0.75000  1
