CIF file written using JARVIS-Tools package.
data_Li4Mn2Nb3Cr3O16
_symmetry_space_group_name_H-M  'Cm'
_cell_length_a       5.95346
_cell_length_b       6.00631
_cell_length_c       9.84528
_cell_angle_alpha    90.0013
_cell_angle_beta     89.1503
_cell_angle_gamma    120.293

_symmetry_Int_Tables_number  8
_chemical_formula_structural  Li4Mn2Nb3Cr3O16
_chemical_formula_sum  Li4Mn2Nb3Cr3O6
_cell_volume  303.9341821705712
_cell_formula_units_Z  1
loop_
  _symmetry_equiv_pos_site_id
 _symmetry_equiv_pos_as_xyz
 1  'x, y, z'
loop_
 _atom_site_type_symbol
 _atom_site_label
 _atom_site_symmetry_multiplicity
 _atom_site_fract_x
 _atom_site_fract_y
 _atom_site_fract_z
 _atom_site_fract_occupancy
 Cr  Cr1  1  0.32651  0.16327  0.71301  1
 Cr  Cr2  1  0.17979  0.34245  0.21563  1
 Cr  Cr3  1  0.17978  0.83735  0.21563  1
 Li  Li1  1  0.31525  0.65765  0.90167  1
 Li  Li2  1  0.02188  0.01095  0.49206  1
 Li  Li3  1  0.03876  0.01939  0.00072  1
 Li  Li4  1  0.67191  0.33597  0.38599  1
 Mn  Mn1  1  0.31673  0.65837  0.48548  1
 Mn  Mn2  1  0.67083  0.33541  0.00638  1
 Nb  Nb1  1  0.66490  0.83245  0.21335  1
 Nb  Nb2  1  0.81250  0.65430  0.71479  1
 Nb  Nb3  1  0.81250  0.15823  0.71478  1
 O  O1  1  0.15049  0.31356  0.60360  1
 O  O2  1  0.15049  0.83694  0.60360  1
 O  O3  1  0.95417  0.47710  0.84039  1
 O  O4  1  0.33990  0.66995  0.10203  1
 O  O5  1  0.01352  0.00677  0.31268  1
 O  O6  1  -0.00401  -0.00198  0.82095  1
 O  O7  1  0.04405  0.52204  0.32990  1
 O  O8  1  0.85596  0.69106  0.10162  1
 O  O9  1  0.66723  0.83363  0.59368  1
 O  O10  1  0.49661  0.47563  0.83230  1
 O  O11  1  0.49662  0.02104  0.83230  1
 O  O12  1  0.65006  0.32504  0.59601  1
 O  O13  1  0.49213  0.97408  0.33461  1
 O  O14  1  0.33335  0.16668  0.10844  1
 O  O15  1  0.49213  0.51807  0.33461  1
 O  O16  1  0.85596  0.16491  0.10163  1
