CIF file written using JARVIS-Tools package.
data_Li4V7O9F7
_symmetry_space_group_name_H-M  'Cm'
_cell_length_a       5.90811
_cell_length_b       5.90811
_cell_length_c       10.3858
_cell_angle_alpha    90.4143
_cell_angle_beta     73.39
_cell_angle_gamma    120.677

_symmetry_Int_Tables_number  8
_chemical_formula_structural  Li4V7O9F7
_chemical_formula_sum  Li4V7O9F7
_cell_volume  294.5229159446378
_cell_formula_units_Z  1
loop_
  _symmetry_equiv_pos_site_id
 _symmetry_equiv_pos_as_xyz
 1  'x, y, z'
loop_
 _atom_site_type_symbol
 _atom_site_label
 _atom_site_symmetry_multiplicity
 _atom_site_fract_x
 _atom_site_fract_y
 _atom_site_fract_z
 _atom_site_fract_occupancy
 F  F1  1  0.35835  0.93657  0.19383  1
 F  F2  1  0.86965  0.66667  0.93813  1
 F  F3  1  0.36695  0.21071  0.42235  1
 F  F4  1  0.86960  0.44782  0.19383  1
 F  F5  1  0.87522  0.18032  0.44058  1
 F  F6  1  0.37910  0.68420  0.44058  1
 F  F7  1  0.39520  0.19221  0.93813  1
 Li  Li1  1  0.98862  0.00764  0.00374  1
 Li  Li2  1  0.26362  0.61340  0.12299  1
 Li  Li3  1  0.26319  0.12242  0.61439  1
 Li  Li4  1  0.98092  0.51303  0.50605  1
 O  O1  1  0.86136  0.20716  0.93149  1
 O  O2  1  0.88000  0.92556  0.19444  1
 O  O3  1  0.85701  0.43032  0.71268  1
 O  O4  1  0.39200  0.41531  0.19269  1
 O  O5  1  0.39399  0.45656  0.68601  1
 O  O6  1  0.85744  0.92001  0.68601  1
 O  O7  1  0.38147  0.92174  0.69678  1
 O  O8  1  0.39012  0.68887  0.92102  1
 O  O9  1  0.85016  0.71471  0.43513  1
 V  V1  1  0.63793  0.59391  0.30605  1
 V  V2  1  0.64927  0.05110  0.80227  1
 V  V3  1  0.10005  0.05602  0.30605  1
 V  V4  1  0.62871  0.29614  0.07515  1
 V  V5  1  0.14663  0.54846  0.80227  1
 V  V6  1  0.61439  0.81709  0.56852  1
 V  V7  1  0.62408  0.56955  0.80636  1
