CIF file written using JARVIS-Tools package.
data_KGeBr3
_symmetry_space_group_name_H-M  'P2_1/m'
_cell_length_a       5.89257
_cell_length_b       7.49822
_cell_length_c       8.16076
_cell_angle_alpha    90
_cell_angle_beta     114.769
_cell_angle_gamma    90

_symmetry_Int_Tables_number  11
_chemical_formula_structural  KGeBr3
_chemical_formula_sum  K2Ge2Br6
_cell_volume  327.4026628538354
_cell_formula_units_Z  2
loop_
  _symmetry_equiv_pos_site_id
 _symmetry_equiv_pos_as_xyz
 1  'x, y, z'
loop_
 _atom_site_type_symbol
 _atom_site_label
 _atom_site_symmetry_multiplicity
 _atom_site_fract_x
 _atom_site_fract_y
 _atom_site_fract_z
 _atom_site_fract_occupancy
 Br  Br1  1  0.36041  0.00725  0.18447  1
 Br  Br2  1  0.63959  0.50725  0.81553  1
 Br  Br3  1  0.00010  0.25000  0.61799  1
 Br  Br4  1  -0.00010  0.75000  0.38201  1
 Br  Br5  1  0.63959  0.99275  0.81553  1
 Br  Br6  1  0.36041  0.49275  0.18447  1
 Ge  Ge1  1  0.44339  0.75000  0.40835  1
 Ge  Ge2  1  0.55661  0.25000  0.59165  1
 K  K1  1  0.13912  0.75000  0.81637  1
 K  K2  1  0.86088  0.25000  0.18363  1
