CIF file written using JARVIS-Tools package.
data_PrNiO3
_symmetry_space_group_name_H-M  'R-3c'
_cell_length_a       5.34181
_cell_length_b       5.34181
_cell_length_c       5.34181
_cell_angle_alpha    61.774
_cell_angle_beta     61.774
_cell_angle_gamma    61.7739

_symmetry_Int_Tables_number  167
_chemical_formula_structural  PrNiO3
_chemical_formula_sum  Pr2Ni2O6
_cell_volume  112.06674876231871
_cell_formula_units_Z  2
loop_
  _symmetry_equiv_pos_site_id
 _symmetry_equiv_pos_as_xyz
 1  'x, y, z'
loop_
 _atom_site_type_symbol
 _atom_site_label
 _atom_site_symmetry_multiplicity
 _atom_site_fract_x
 _atom_site_fract_y
 _atom_site_fract_z
 _atom_site_fract_occupancy
 Ni  Ni1  1  0.50000  0.50000  0.50000  1
 Ni  Ni2  1  0.00000  0.00000  0.00000  1
 O  O1  1  0.18972  0.75000  0.31028  1
 O  O2  1  0.75000  0.31028  0.18972  1
 O  O3  1  0.31028  0.18972  0.75000  1
 O  O4  1  0.81028  0.25000  0.68972  1
 O  O5  1  0.68972  0.81028  0.25000  1
 O  O6  1  0.25000  0.68972  0.81028  1
 Pr  Pr1  1  0.75000  0.75000  0.75000  1
 Pr  Pr2  1  0.25000  0.25000  0.25000  1
