CIF file written using JARVIS-Tools package.
data_YbMoClO4
_symmetry_space_group_name_H-M  'C2/m'
_cell_length_a       6.75735
_cell_length_b       6.75735
_cell_length_c       6.79719
_cell_angle_alpha    102.391
_cell_angle_beta     102.391
_cell_angle_gamma    56.6715

_symmetry_Int_Tables_number  12
_chemical_formula_structural  YbMoClO4
_chemical_formula_sum  Yb2Mo2Cl2O8
_cell_volume  251.5020846740627
_cell_formula_units_Z  2
loop_
  _symmetry_equiv_pos_site_id
 _symmetry_equiv_pos_as_xyz
 1  'x, y, z'
loop_
 _atom_site_type_symbol
 _atom_site_label
 _atom_site_symmetry_multiplicity
 _atom_site_fract_x
 _atom_site_fract_y
 _atom_site_fract_z
 _atom_site_fract_occupancy
 Cl  Cl1  1  0.97826  0.97826  0.34767  1
 Cl  Cl2  1  0.02174  0.02174  0.65233  1
 Mo  Mo1  1  0.63199  0.63199  0.25927  1
 Mo  Mo2  1  0.36801  0.36801  0.74073  1
 O  O1  1  0.88681  0.45735  0.12059  1
 O  O2  1  0.45735  0.88681  0.12059  1
 O  O3  1  0.48261  0.48261  0.24571  1
 O  O4  1  0.28876  0.28876  0.48609  1
 O  O5  1  0.71124  0.71124  0.51391  1
 O  O6  1  0.51739  0.51739  0.75429  1
 O  O7  1  0.54265  0.11319  0.87941  1
 O  O8  1  0.11319  0.54265  0.87941  1
 Yb  Yb1  1  0.28787  0.28787  0.15393  1
 Yb  Yb2  1  0.71213  0.71213  0.84607  1
