CIF file written using JARVIS-Tools package.
data_HfVGe
_symmetry_space_group_name_H-M  'I4/mmm'
_cell_length_a       3.71407
_cell_length_b       3.71408
_cell_length_c       7.66851
_cell_angle_alpha    104.014
_cell_angle_beta     104.014
_cell_angle_gamma    90

_symmetry_Int_Tables_number  139
_chemical_formula_structural  HfVGe
_chemical_formula_sum  Hf2V2Ge2
_cell_volume  99.38553135066326
_cell_formula_units_Z  2
loop_
  _symmetry_equiv_pos_site_id
 _symmetry_equiv_pos_as_xyz
 1  'x, y, z'
loop_
 _atom_site_type_symbol
 _atom_site_label
 _atom_site_symmetry_multiplicity
 _atom_site_fract_x
 _atom_site_fract_y
 _atom_site_fract_z
 _atom_site_fract_occupancy
 Ge  Ge1  1  0.12875  0.12875  0.25750  1
 Ge  Ge2  1  0.87125  0.87125  0.74250  1
 Hf  Hf1  1  0.67697  0.67697  0.35395  1
 Hf  Hf2  1  0.32303  0.32303  0.64605  1
 V  V1  1  0.00000  0.50000  -0.00000  1
 V  V2  1  0.50000  0.00000  0.00000  1
