CIF file written using JARVIS-Tools package.
data_RbUAuSe3
_symmetry_space_group_name_H-M  'Cmcm'
_cell_length_a       4.18528
_cell_length_b       7.83531
_cell_length_c       10.7357
_cell_angle_alpha    90.0025
_cell_angle_beta     90
_cell_angle_gamma    74.5095

_symmetry_Int_Tables_number  63
_chemical_formula_structural  RbUAuSe3
_chemical_formula_sum  Rb2U2Au2Se6
_cell_volume  339.26580734936346
_cell_formula_units_Z  2
loop_
  _symmetry_equiv_pos_site_id
 _symmetry_equiv_pos_as_xyz
 1  'x, y, z'
loop_
 _atom_site_type_symbol
 _atom_site_label
 _atom_site_symmetry_multiplicity
 _atom_site_fract_x
 _atom_site_fract_y
 _atom_site_fract_z
 _atom_site_fract_occupancy
 Au  Au1  1  0.54773  0.90455  0.24999  1
 Au  Au2  1  0.45227  0.09545  0.75001  1
 Rb  Rb1  1  0.25138  0.49723  0.25000  1
 Rb  Rb2  1  0.74862  0.50277  0.75001  1
 Se  Se1  1  0.62834  0.74332  0.03884  1
 Se  Se2  1  0.93307  0.13386  0.25000  1
 Se  Se3  1  0.62834  0.74332  0.46114  1
 Se  Se4  1  0.37166  0.25668  0.53886  1
 Se  Se5  1  0.06693  0.86614  0.75000  1
 Se  Se6  1  0.37166  0.25668  0.96116  1
 U  U1  1  0.00000  0.00000  0.00000  1
 U  U2  1  0.00000  -0.00000  0.50000  1
