CIF file written using JARVIS-Tools package.
data_Li4Co3NiO8
_symmetry_space_group_name_H-M  'R-3m'
_cell_length_a       5.71024
_cell_length_b       5.71022
_cell_length_c       5.69656
_cell_angle_alpha    59.9253
_cell_angle_beta     59.9253
_cell_angle_gamma    59.9975

_symmetry_Int_Tables_number  166
_chemical_formula_structural  Li4Co3NiO8
_chemical_formula_sum  Li4Co3NiO8
_cell_volume  131.191079868567
_cell_formula_units_Z  1
loop_
  _symmetry_equiv_pos_site_id
 _symmetry_equiv_pos_as_xyz
 1  'x, y, z'
loop_
 _atom_site_type_symbol
 _atom_site_label
 _atom_site_symmetry_multiplicity
 _atom_site_fract_x
 _atom_site_fract_y
 _atom_site_fract_z
 _atom_site_fract_occupancy
 Co  Co1  1  -0.00000  0.50000  0.00000  1
 Co  Co2  1  0.50000  0.50000  -0.00000  1
 Co  Co3  1  0.50000  0.00000  -0.00000  1
 Li  Li1  1  -0.00000  0.50000  0.50000  1
 Li  Li2  1  1.00000  0.00000  0.50000  1
 Li  Li3  1  0.50000  0.50000  0.50000  1
 Li  Li4  1  0.50000  1.00000  0.50000  1
 Ni  Ni1  1  0.00000  -0.00000  -0.00000  1
 O  O1  1  0.24442  0.73329  0.77783  1
 O  O2  1  0.26671  0.75558  0.22217  1
 O  O3  1  0.26055  0.26055  0.21838  1
 O  O4  1  0.75556  0.75556  0.22219  1
 O  O5  1  0.24444  0.24444  0.77781  1
 O  O6  1  0.73944  0.73945  0.78163  1
 O  O7  1  0.73329  0.24442  0.77783  1
 O  O8  1  0.75558  0.26671  0.22217  1
