CIF file written using JARVIS-Tools package.
data_LiMnPO4
_symmetry_space_group_name_H-M  'Pc'
_cell_length_a       8.19548
_cell_length_b       5.27388
_cell_length_c       8.38952
_cell_angle_alpha    90
_cell_angle_beta     106.794
_cell_angle_gamma    90

_symmetry_Int_Tables_number  7
_chemical_formula_structural  LiMnPO4
_chemical_formula_sum  Li4Mn4P4O6
_cell_volume  347.1461260396653
_cell_formula_units_Z  4
loop_
  _symmetry_equiv_pos_site_id
 _symmetry_equiv_pos_as_xyz
 1  'x, y, z'
loop_
 _atom_site_type_symbol
 _atom_site_label
 _atom_site_symmetry_multiplicity
 _atom_site_fract_x
 _atom_site_fract_y
 _atom_site_fract_z
 _atom_site_fract_occupancy
 Li  Li1  1  0.13498  0.33526  0.79217  1
 Li  Li2  1  0.63085  0.82559  0.61301  1
 Li  Li3  1  0.13498  0.66474  0.29217  1
 Li  Li4  1  0.63085  0.17441  0.11301  1
 Mn  Mn1  1  0.03207  0.83658  0.92005  1
 Mn  Mn2  1  0.50784  0.32212  0.72842  1
 Mn  Mn3  1  0.03207  0.16342  0.42005  1
 Mn  Mn4  1  0.50784  0.67788  0.22842  1
 O  O1  1  0.68135  0.39778  0.95481  1
 O  O2  1  0.42279  0.68425  0.65367  1
 O  O3  1  0.77072  0.79835  0.83220  1
 O  O4  1  0.12102  0.19149  0.99729  1
 O  O5  1  0.19692  0.68982  0.80482  1
 O  O6  1  0.62253  0.82225  0.06292  1
 O  O7  1  0.62253  0.17775  0.56292  1
 O  O8  1  0.29550  0.10744  0.71184  1
 O  O9  1  0.93365  0.31611  0.61359  1
 O  O10  1  0.77072  0.20165  0.33220  1
 O  O11  1  0.19692  0.31018  0.30482  1
 O  O12  1  0.29550  0.89256  0.21184  1
 O  O13  1  0.12102  0.80851  0.49729  1
 O  O14  1  0.42279  0.31575  0.15367  1
 O  O15  1  0.68135  0.60222  0.45481  1
 O  O16  1  0.93365  0.68389  0.11359  1
 P  P1  1  0.74999  0.67244  0.99346  1
 P  P2  1  0.26099  0.81985  0.66794  1
 P  P3  1  0.74999  0.32756  0.49346  1
 P  P4  1  0.26099  0.18015  0.16794  1
