CIF file written using JARVIS-Tools package.
data_LuSiIr
_symmetry_space_group_name_H-M  'Pnma'
_cell_length_a       4.18115
_cell_length_b       6.7067
_cell_length_c       7.40992
_cell_angle_alpha    90
_cell_angle_beta     90
_cell_angle_gamma    90

_symmetry_Int_Tables_number  62
_chemical_formula_structural  LuSiIr
_chemical_formula_sum  Lu4Si4Ir4
_cell_volume  207.78709604062857
_cell_formula_units_Z  4
loop_
  _symmetry_equiv_pos_site_id
 _symmetry_equiv_pos_as_xyz
 1  'x, y, z'
loop_
 _atom_site_type_symbol
 _atom_site_label
 _atom_site_symmetry_multiplicity
 _atom_site_fract_x
 _atom_site_fract_y
 _atom_site_fract_z
 _atom_site_fract_occupancy
 Ir  Ir1  1  0.25000  0.83820  0.93331  1
 Ir  Ir2  1  0.25000  0.33820  0.56669  1
 Ir  Ir3  1  0.75000  0.66180  0.43331  1
 Ir  Ir4  1  0.75000  0.16180  0.06669  1
 Lu  Lu1  1  0.75000  0.50487  0.81195  1
 Lu  Lu2  1  0.25000  0.99513  0.31195  1
 Lu  Lu3  1  0.75000  0.00487  0.68805  1
 Lu  Lu4  1  0.25000  0.49513  0.18805  1
 Si  Si1  1  0.25000  0.70552  0.61208  1
 Si  Si2  1  0.25000  0.20552  0.88792  1
 Si  Si3  1  0.75000  0.29448  0.38792  1
 Si  Si4  1  0.75000  0.79448  0.11208  1
