CIF file written using JARVIS-Tools package.
data_Pm2Mg
_symmetry_space_group_name_H-M  'I4/mmm'
_cell_length_a       3.649
_cell_length_b       3.649
_cell_length_c       7.28327
_cell_angle_alpha    104.509
_cell_angle_beta     104.509
_cell_angle_gamma    89.9944

_symmetry_Int_Tables_number  139
_chemical_formula_structural  Pm2Mg
_chemical_formula_sum  Pm2Mg
_cell_volume  90.68797523650636
_cell_formula_units_Z  1
loop_
  _symmetry_equiv_pos_site_id
 _symmetry_equiv_pos_as_xyz
 1  'x, y, z'
loop_
 _atom_site_type_symbol
 _atom_site_label
 _atom_site_symmetry_multiplicity
 _atom_site_fract_x
 _atom_site_fract_y
 _atom_site_fract_z
 _atom_site_fract_occupancy
 Mg  Mg1  1  0.75000  0.58333  0.33333  1
 Pm  Pm1  1  0.08987  0.92320  0.01308  1
 Pm  Pm2  1  0.41013  0.24346  0.65359  1
