CIF file written using JARVIS-Tools package.
data_Mo3WSe4S4
_symmetry_space_group_name_H-M  'P3m1'
_cell_length_a       3.25786
_cell_length_b       3.25786
_cell_length_c       33.8466
_cell_angle_alpha    89.9971
_cell_angle_beta     89.9979
_cell_angle_gamma    120

_symmetry_Int_Tables_number  156
_chemical_formula_structural  Mo3WSe4S4
_chemical_formula_sum  Mo3WSe4S4
_cell_volume  311.1084311120299
_cell_formula_units_Z  1
loop_
  _symmetry_equiv_pos_site_id
 _symmetry_equiv_pos_as_xyz
 1  'x, y, z'
loop_
 _atom_site_type_symbol
 _atom_site_label
 _atom_site_symmetry_multiplicity
 _atom_site_fract_x
 _atom_site_fract_y
 _atom_site_fract_z
 _atom_site_fract_occupancy
 Mo  Mo1  1  0.33353  0.66699  0.09479  1
 Mo  Mo2  1  0.33330  0.66659  0.46684  1
 Mo  Mo3  1  0.66677  0.33354  0.27742  1
 S  S1  1  0.33341  0.66685  0.32310  1
 S  S2  1  0.66691  0.33373  0.04916  1
 S  S3  1  0.66681  0.33359  0.14046  1
 S  S4  1  0.33346  0.66689  0.23176  1
 Se  Se1  1  0.33302  0.66616  0.71429  1
 Se  Se2  1  0.66668  0.33331  0.41668  1
 Se  Se3  1  0.66660  0.33320  0.51702  1
 Se  Se4  1  0.33311  0.66628  0.61336  1
 W  W1  1  0.66640  0.33289  0.66386  1
