CIF file written using JARVIS-Tools package.
data_CeCdAsO
_symmetry_space_group_name_H-M  'P4/nmm'
_cell_length_a       4.13958
_cell_length_b       4.13958
_cell_length_c       9.23065
_cell_angle_alpha    90
_cell_angle_beta     90
_cell_angle_gamma    90

_symmetry_Int_Tables_number  129
_chemical_formula_structural  CeCdAsO
_chemical_formula_sum  Ce2Cd2As2O2
_cell_volume  158.1776081355
_cell_formula_units_Z  2
loop_
  _symmetry_equiv_pos_site_id
 _symmetry_equiv_pos_as_xyz
 1  'x, y, z'
loop_
 _atom_site_type_symbol
 _atom_site_label
 _atom_site_symmetry_multiplicity
 _atom_site_fract_x
 _atom_site_fract_y
 _atom_site_fract_z
 _atom_site_fract_occupancy
 As  As1  1  0.00000  0.50000  0.70719  1
 As  As2  1  0.50000  0.00000  0.29281  1
 Cd  Cd1  1  0.50000  0.50000  0.50000  1
 Cd  Cd2  1  0.00000  0.00000  0.50000  1
 Ce  Ce1  1  0.50000  0.00000  0.87347  1
 Ce  Ce2  1  0.00000  0.50000  0.12653  1
 O  O1  1  0.50000  0.50000  0.00000  1
 O  O2  1  0.00000  0.00000  0.00000  1
