CIF file written using JARVIS-Tools package.
data_Si3W
_symmetry_space_group_name_H-M  'P6_3/mmc'
_cell_length_a       5.31109
_cell_length_b       5.31109
_cell_length_c       4.83667
_cell_angle_alpha    90
_cell_angle_beta     90
_cell_angle_gamma    120

_symmetry_Int_Tables_number  194
_chemical_formula_structural  Si3W
_chemical_formula_sum  Si6W2
_cell_volume  118.15301669424544
_cell_formula_units_Z  2
loop_
  _symmetry_equiv_pos_site_id
 _symmetry_equiv_pos_as_xyz
 1  'x, y, z'
loop_
 _atom_site_type_symbol
 _atom_site_label
 _atom_site_symmetry_multiplicity
 _atom_site_fract_x
 _atom_site_fract_y
 _atom_site_fract_z
 _atom_site_fract_occupancy
 Si  Si1  1  0.17837  0.82163  0.75000  1
 Si  Si2  1  0.64326  0.82163  0.75000  1
 Si  Si3  1  0.17837  0.35674  0.75000  1
 Si  Si4  1  0.82163  0.17837  0.25000  1
 Si  Si5  1  0.35674  0.17837  0.25000  1
 Si  Si6  1  0.82163  0.64326  0.25000  1
 W  W1  1  0.33333  0.66667  0.25000  1
 W  W2  1  0.66667  0.33333  0.75000  1
