CIF file written using JARVIS-Tools package.
data_K4Hf5O12
_symmetry_space_group_name_H-M  'P-3m1'
_cell_length_a       5.79937
_cell_length_b       5.79937
_cell_length_c       10.3841
_cell_angle_alpha    90
_cell_angle_beta     90
_cell_angle_gamma    120

_symmetry_Int_Tables_number  164
_chemical_formula_structural  K4Hf5O12
_chemical_formula_sum  K4Hf5O2
_cell_volume  302.4560216036166
_cell_formula_units_Z  1
loop_
  _symmetry_equiv_pos_site_id
 _symmetry_equiv_pos_as_xyz
 1  'x, y, z'
loop_
 _atom_site_type_symbol
 _atom_site_label
 _atom_site_symmetry_multiplicity
 _atom_site_fract_x
 _atom_site_fract_y
 _atom_site_fract_z
 _atom_site_fract_occupancy
 Hf  Hf1  1  0.66667  0.33333  0.52395  1
 Hf  Hf2  1  0.33333  0.66667  0.47605  1
 Hf  Hf3  1  0.00000  0.00000  0.00000  1
 Hf  Hf4  1  0.66667  0.33333  0.21658  1
 Hf  Hf5  1  0.33333  0.66667  0.78342  1
 K  K1  1  0.00000  0.00000  0.67679  1
 K  K2  1  0.00000  0.00000  0.32321  1
 K  K3  1  0.66667  0.33333  0.88657  1
 K  K4  1  0.33333  0.66667  0.11343  1
 O  O1  1  0.67002  0.83501  0.87873  1
 O  O2  1  0.50953  0.01907  0.37715  1
 O  O3  1  0.16499  0.83501  0.87873  1
 O  O4  1  0.83501  0.16499  0.12127  1
 O  O5  1  0.16499  0.32998  0.87873  1
 O  O6  1  0.49047  0.50953  0.62285  1
 O  O7  1  0.01907  0.50953  0.62285  1
 O  O8  1  0.49047  0.98093  0.62285  1
 O  O9  1  0.83501  0.67002  0.12127  1
 O  O10  1  0.50953  0.49047  0.37715  1
 O  O11  1  0.32998  0.16499  0.12127  1
 O  O12  1  0.98093  0.49047  0.37715  1
