CIF file written using JARVIS-Tools package.
data_ScGe2
_symmetry_space_group_name_H-M  'Cmcm'
_cell_length_a       3.82297
_cell_length_b       3.9005
_cell_length_c       7.75436
_cell_angle_alpha    104.567
_cell_angle_beta     90
_cell_angle_gamma    90

_symmetry_Int_Tables_number  63
_chemical_formula_structural  ScGe2
_chemical_formula_sum  Sc2Ge4
_cell_volume  111.91230599866232
_cell_formula_units_Z  2
loop_
  _symmetry_equiv_pos_site_id
 _symmetry_equiv_pos_as_xyz
 1  'x, y, z'
loop_
 _atom_site_type_symbol
 _atom_site_label
 _atom_site_symmetry_multiplicity
 _atom_site_fract_x
 _atom_site_fract_y
 _atom_site_fract_z
 _atom_site_fract_occupancy
 Ge  Ge1  1  0.75000  0.44182  0.88365  1
 Ge  Ge2  1  0.25000  0.55818  0.11635  1
 Ge  Ge3  1  0.75000  0.74850  0.49701  1
 Ge  Ge4  1  0.25000  0.25150  0.50299  1
 Sc  Sc1  1  0.75000  0.10176  0.20352  1
 Sc  Sc2  1  0.25000  0.89824  0.79648  1
