CIF file written using JARVIS-Tools package.
data_TbAs3
_symmetry_space_group_name_H-M  'P6_3/mmc'
_cell_length_a       6.04922
_cell_length_b       6.04922
_cell_length_c       5.52418
_cell_angle_alpha    90
_cell_angle_beta     90
_cell_angle_gamma    120

_symmetry_Int_Tables_number  194
_chemical_formula_structural  TbAs3
_chemical_formula_sum  Tb2As6
_cell_volume  175.063807480566
_cell_formula_units_Z  2
loop_
  _symmetry_equiv_pos_site_id
 _symmetry_equiv_pos_as_xyz
 1  'x, y, z'
loop_
 _atom_site_type_symbol
 _atom_site_label
 _atom_site_symmetry_multiplicity
 _atom_site_fract_x
 _atom_site_fract_y
 _atom_site_fract_z
 _atom_site_fract_occupancy
 As  As1  1  0.63094  0.81547  0.75000  1
 As  As2  1  0.18453  0.36906  0.75000  1
 As  As3  1  0.18453  0.81547  0.75000  1
 As  As4  1  0.36906  0.18453  0.25000  1
 As  As5  1  0.81547  0.63094  0.25000  1
 As  As6  1  0.81547  0.18453  0.25000  1
 Tb  Tb1  1  0.33333  0.66667  0.25000  1
 Tb  Tb2  1  0.66667  0.33333  0.75000  1
