CIF file written using JARVIS-Tools package.
data_Te2Mo3WS6
_symmetry_space_group_name_H-M  'P3m1'
_cell_length_a       3.27608
_cell_length_b       3.2759
_cell_length_c       38.4779
_cell_angle_alpha    90.0191
_cell_angle_beta     90
_cell_angle_gamma    120.002

_symmetry_Int_Tables_number  156
_chemical_formula_structural  Te2Mo3WS6
_chemical_formula_sum  Te2Mo3WS6
_cell_volume  357.6175769072651
_cell_formula_units_Z  1
loop_
  _symmetry_equiv_pos_site_id
 _symmetry_equiv_pos_as_xyz
 1  'x, y, z'
loop_
 _atom_site_type_symbol
 _atom_site_label
 _atom_site_symmetry_multiplicity
 _atom_site_fract_x
 _atom_site_fract_y
 _atom_site_fract_z
 _atom_site_fract_occupancy
 Mo  Mo1  1  0.33338  0.66676  0.09350  1
 Mo  Mo2  1  0.66672  0.33345  0.28207  1
 Mo  Mo3  1  0.66688  0.33375  0.65945  1
 S  S1  1  0.33351  0.66703  0.32201  1
 S  S2  1  0.66660  0.33319  0.05365  1
 S  S3  1  0.66628  0.33257  0.42778  1
 S  S4  1  0.66686  0.33371  0.13341  1
 S  S5  1  0.66645  0.33290  0.50807  1
 S  S6  1  0.33326  0.66651  0.24213  1
 Te  Te1  1  0.33362  0.66724  0.70936  1
 Te  Te2  1  0.33342  0.66684  0.60939  1
 W  W1  1  0.33302  0.66605  0.46793  1
