CIF file written using JARVIS-Tools package.
data_PrNi
_symmetry_space_group_name_H-M  'Cmcm'
_cell_length_a       3.84544
_cell_length_b       4.35213
_cell_length_c       5.66047
_cell_angle_alpha    90
_cell_angle_beta     109.857
_cell_angle_gamma    90

_symmetry_Int_Tables_number  63
_chemical_formula_structural  PrNi
_chemical_formula_sum  Pr2Ni2
_cell_volume  89.10032434243713
_cell_formula_units_Z  2
loop_
  _symmetry_equiv_pos_site_id
 _symmetry_equiv_pos_as_xyz
 1  'x, y, z'
loop_
 _atom_site_type_symbol
 _atom_site_label
 _atom_site_symmetry_multiplicity
 _atom_site_fract_x
 _atom_site_fract_y
 _atom_site_fract_z
 _atom_site_fract_occupancy
 Ni  Ni1  1  0.07444  0.25000  0.14888  1
 Ni  Ni2  1  0.92556  0.75000  0.85112  1
 Pr  Pr1  1  0.36278  0.25000  0.72556  1
 Pr  Pr2  1  0.63722  0.75000  0.27444  1
