CIF file written using JARVIS-Tools package.
data_Th2CrN3
_symmetry_space_group_name_H-M  'Immm'
_cell_length_a       3.55037
_cell_length_b       3.76306
_cell_length_c       7.00385
_cell_angle_alpha    105.583
_cell_angle_beta     104.682
_cell_angle_gamma    90

_symmetry_Int_Tables_number  71
_chemical_formula_structural  Th2CrN3
_chemical_formula_sum  Th2CrN3
_cell_volume  86.95734130829771
_cell_formula_units_Z  1
loop_
  _symmetry_equiv_pos_site_id
 _symmetry_equiv_pos_as_xyz
 1  'x, y, z'
loop_
 _atom_site_type_symbol
 _atom_site_label
 _atom_site_symmetry_multiplicity
 _atom_site_fract_x
 _atom_site_fract_y
 _atom_site_fract_z
 _atom_site_fract_occupancy
 Cr  Cr1  1  0.00000  0.00000  0.00000  1
 N  N1  1  0.83496  0.83496  0.66992  1
 N  N2  1  0.16504  0.16504  0.33008  1
 N  N3  1  0.00000  0.50000  0.00000  1
 Th  Th1  1  0.35481  0.35480  0.70961  1
 Th  Th2  1  0.64519  0.64520  0.29039  1
