CIF file written using JARVIS-Tools package.
data_BaNaScSi2O7
_symmetry_space_group_name_H-M  'P2_1/m'
_cell_length_a       6.86461
_cell_length_b       5.68418
_cell_length_c       8.87876
_cell_angle_alpha    90
_cell_angle_beta     109.573
_cell_angle_gamma    90

_symmetry_Int_Tables_number  11
_chemical_formula_structural  BaNaScSi2O7
_chemical_formula_sum  Ba2Na2Sc2Si4O4
_cell_volume  326.4278769530338
_cell_formula_units_Z  2
loop_
  _symmetry_equiv_pos_site_id
 _symmetry_equiv_pos_as_xyz
 1  'x, y, z'
loop_
 _atom_site_type_symbol
 _atom_site_label
 _atom_site_symmetry_multiplicity
 _atom_site_fract_x
 _atom_site_fract_y
 _atom_site_fract_z
 _atom_site_fract_occupancy
 Ba  Ba1  1  0.70572  0.25000  0.53471  1
 Ba  Ba2  1  0.29428  0.75000  0.46529  1
 Na  Na1  1  0.26954  0.75000  -0.00056  1
 Na  Na2  1  0.73046  0.25000  0.00056  1
 O  O1  1  0.89143  0.75000  0.85124  1
 O  O2  1  0.91665  0.48668  0.31530  1
 O  O3  1  0.53882  0.99182  0.74930  1
 O  O4  1  0.46118  0.49182  0.25070  1
 O  O5  1  0.46118  0.00818  0.25070  1
 O  O6  1  0.10857  0.25000  0.14876  1
 O  O7  1  0.63459  0.75000  0.02547  1
 O  O8  1  0.36541  0.25000  0.97453  1
 O  O9  1  0.73576  0.75000  0.52535  1
 O  O10  1  0.08335  0.51332  0.68470  1
 O  O11  1  0.53882  0.50818  0.74930  1
 O  O12  1  0.91665  0.01332  0.31530  1
 O  O13  1  0.26424  0.25000  0.47465  1
 O  O14  1  0.08335  0.98668  0.68470  1
 Sc  Sc1  1  0.30145  0.25000  0.73302  1
 Sc  Sc2  1  0.69855  0.75000  0.26698  1
 Si  Si1  1  0.05064  0.25000  0.31883  1
 Si  Si2  1  0.94936  0.75000  0.68117  1
 Si  Si3  1  0.35672  0.25000  0.15487  1
 Si  Si4  1  0.64328  0.75000  0.84513  1
