CIF file written using JARVIS-Tools package.
data_Te4Mo3WS4
_symmetry_space_group_name_H-M  'P3m1'
_cell_length_a       3.36561
_cell_length_b       3.3656
_cell_length_c       35.4729
_cell_angle_alpha    90.0027
_cell_angle_beta     89.9992
_cell_angle_gamma    120

_symmetry_Int_Tables_number  156
_chemical_formula_structural  Te4Mo3WS4
_chemical_formula_sum  Te4Mo3WS4
_cell_volume  347.980377176008
_cell_formula_units_Z  1
loop_
  _symmetry_equiv_pos_site_id
 _symmetry_equiv_pos_as_xyz
 1  'x, y, z'
loop_
 _atom_site_type_symbol
 _atom_site_label
 _atom_site_symmetry_multiplicity
 _atom_site_fract_x
 _atom_site_fract_y
 _atom_site_fract_z
 _atom_site_fract_occupancy
 Mo  Mo1  1  0.33345  0.66687  0.09190  1
 Mo  Mo2  1  0.66668  0.33330  0.28056  1
 Mo  Mo3  1  0.66658  0.33326  0.66015  1
 S  S1  1  0.66678  0.33351  0.04929  1
 S  S2  1  0.66661  0.33323  0.42750  1
 S  S3  1  0.66679  0.33355  0.13456  1
 S  S4  1  0.66662  0.33327  0.51319  1
 Te  Te1  1  0.33336  0.66665  0.33396  1
 Te  Te2  1  0.33325  0.66661  0.71344  1
 Te  Te3  1  0.33334  0.66660  0.22712  1
 Te  Te4  1  0.33324  0.66656  0.60673  1
 W  W1  1  0.33329  0.66659  0.47035  1
