CIF file written using JARVIS-Tools package.
data_RbTe3Mo3
_symmetry_space_group_name_H-M  'P6_3/m'
_cell_length_a       9.91005
_cell_length_b       4.61938
_cell_length_c       9.91001
_cell_angle_alpha    90
_cell_angle_beta     120.001
_cell_angle_gamma    90

_symmetry_Int_Tables_number  176
_chemical_formula_structural  RbTe3Mo3
_chemical_formula_sum  Rb2Te6Mo6
_cell_volume  392.88167554551245
_cell_formula_units_Z  2
loop_
  _symmetry_equiv_pos_site_id
 _symmetry_equiv_pos_as_xyz
 1  'x, y, z'
loop_
 _atom_site_type_symbol
 _atom_site_label
 _atom_site_symmetry_multiplicity
 _atom_site_fract_x
 _atom_site_fract_y
 _atom_site_fract_z
 _atom_site_fract_occupancy
 Mo  Mo1  1  0.16618  0.00000  0.13961  1
 Mo  Mo2  1  0.86039  0.00000  0.02656  1
 Mo  Mo3  1  0.97344  0.00000  0.83382  1
 Mo  Mo4  1  0.83383  0.50000  0.86039  1
 Mo  Mo5  1  0.02656  0.50000  0.16617  1
 Mo  Mo6  1  0.13961  0.50000  0.97344  1
 Rb  Rb1  1  0.66667  0.00000  0.33333  1
 Rb  Rb2  1  0.33333  0.50000  0.66667  1
 Te  Te1  1  0.64371  0.00000  0.70015  1
 Te  Te2  1  0.05644  0.00000  0.35629  1
 Te  Te3  1  0.29984  0.00000  0.94356  1
 Te  Te4  1  0.35628  0.50000  0.29984  1
 Te  Te5  1  0.70017  0.50000  0.05644  1
 Te  Te6  1  0.94355  0.50000  0.64372  1
