CIF file written using JARVIS-Tools package.
data_ZrPdF6
_symmetry_space_group_name_H-M  'R-3'
_cell_length_a       5.82911
_cell_length_b       5.8291
_cell_length_c       5.82911
_cell_angle_alpha    53.4442
_cell_angle_beta     53.4442
_cell_angle_gamma    53.4442

_symmetry_Int_Tables_number  148
_chemical_formula_structural  ZrPdF6
_chemical_formula_sum  ZrPdF6
_cell_volume  118.56396688610785
_cell_formula_units_Z  1
loop_
  _symmetry_equiv_pos_site_id
 _symmetry_equiv_pos_as_xyz
 1  'x, y, z'
loop_
 _atom_site_type_symbol
 _atom_site_label
 _atom_site_symmetry_multiplicity
 _atom_site_fract_x
 _atom_site_fract_y
 _atom_site_fract_z
 _atom_site_fract_occupancy
 F  F1  1  0.59220  0.25791  0.88792  1
 F  F2  1  0.25791  0.88792  0.59220  1
 F  F3  1  0.11208  0.40780  0.74209  1
 F  F4  1  0.74209  0.11208  0.40780  1
 F  F5  1  0.40780  0.74209  0.11208  1
 F  F6  1  0.88792  0.59220  0.25791  1
 Pd  Pd1  1  0.00000  0.00000  0.00000  1
 Zr  Zr1  1  0.50000  0.50000  0.50000  1
