CIF file written using JARVIS-Tools package.
data_MgAgF3
_symmetry_space_group_name_H-M  'Pm-3m'
_cell_length_a       3.94424
_cell_length_b       3.94415
_cell_length_c       3.94413
_cell_angle_alpha    89.9977
_cell_angle_beta     89.9955
_cell_angle_gamma    89.9888

_symmetry_Int_Tables_number  221
_chemical_formula_structural  MgAgF3
_chemical_formula_sum  MgAgF3
_cell_volume  61.35759647178124
_cell_formula_units_Z  1
loop_
  _symmetry_equiv_pos_site_id
 _symmetry_equiv_pos_as_xyz
 1  'x, y, z'
loop_
 _atom_site_type_symbol
 _atom_site_label
 _atom_site_symmetry_multiplicity
 _atom_site_fract_x
 _atom_site_fract_y
 _atom_site_fract_z
 _atom_site_fract_occupancy
 Ag  Ag1  1  0.99798  0.98823  0.99996  1
 F  F1  1  0.49810  0.48797  0.00000  1
 F  F2  1  0.49792  0.98797  0.49995  1
 F  F3  1  0.99800  0.48786  0.50008  1
 Mg  Mg1  1  0.49800  0.48797  0.50000  1
