CIF file written using JARVIS-Tools package.
data_LiCoSiO4
_symmetry_space_group_name_H-M  'P6_422'
_cell_length_a       5.33489
_cell_length_b       5.33489
_cell_length_c       12.0629
_cell_angle_alpha    90
_cell_angle_beta     90
_cell_angle_gamma    120

_symmetry_Int_Tables_number  181
_chemical_formula_structural  LiCoSiO4
_chemical_formula_sum  Li3Co3Si3O2
_cell_volume  297.32542055314536
_cell_formula_units_Z  3
loop_
  _symmetry_equiv_pos_site_id
 _symmetry_equiv_pos_as_xyz
 1  'x, y, z'
loop_
 _atom_site_type_symbol
 _atom_site_label
 _atom_site_symmetry_multiplicity
 _atom_site_fract_x
 _atom_site_fract_y
 _atom_site_fract_z
 _atom_site_fract_occupancy
 Co  Co1  1  -0.00000  0.50000  0.83333  1
 Co  Co2  1  0.50000  0.50000  0.16667  1
 Co  Co3  1  0.50000  -0.00000  0.50000  1
 Li  Li1  1  0.00000  0.00000  0.00000  1
 Li  Li2  1  0.00000  0.00000  0.33333  1
 Li  Li3  1  0.00000  0.00000  0.66667  1
 O  O1  1  0.18594  0.79484  0.40754  1
 O  O2  1  0.79484  0.18594  0.92580  1
 O  O3  1  0.18594  0.39110  0.25913  1
 O  O4  1  0.20516  0.39110  0.74087  1
 O  O5  1  0.20516  0.81406  0.92580  1
 O  O6  1  0.60890  0.79484  0.59246  1
 O  O7  1  0.79484  0.60890  0.74087  1
 O  O8  1  0.39110  0.18594  0.07420  1
 O  O9  1  0.60890  0.81406  0.07420  1
 O  O10  1  0.81406  0.60890  0.25913  1
 O  O11  1  0.39110  0.20516  0.59246  1
 O  O12  1  0.81406  0.20516  0.40754  1
 Si  Si1  1  0.50000  -0.00000  0.00000  1
 Si  Si2  1  0.50000  0.50000  0.66667  1
 Si  Si3  1  -0.00000  0.50000  0.33333  1
