CIF file written using JARVIS-Tools package.
data_PrAlGe
_symmetry_space_group_name_H-M  'I4_1md'
_cell_length_a       4.31111
_cell_length_b       4.31111
_cell_length_c       7.98789
_cell_angle_alpha    105.656
_cell_angle_beta     105.656
_cell_angle_gamma    90

_symmetry_Int_Tables_number  109
_chemical_formula_structural  PrAlGe
_chemical_formula_sum  Pr2Al2Ge2
_cell_volume  137.2239907951747
_cell_formula_units_Z  2
loop_
  _symmetry_equiv_pos_site_id
 _symmetry_equiv_pos_as_xyz
 1  'x, y, z'
loop_
 _atom_site_type_symbol
 _atom_site_label
 _atom_site_symmetry_multiplicity
 _atom_site_fract_x
 _atom_site_fract_y
 _atom_site_fract_z
 _atom_site_fract_occupancy
 Al  Al1  1  0.91731  0.41731  0.83462  1
 Al  Al2  1  0.16731  0.16731  0.33462  1
 Ge  Ge1  1  0.00081  0.00081  0.00162  1
 Ge  Ge2  1  0.75081  0.25081  0.50162  1
 Pr  Pr1  1  0.33338  0.83338  0.66677  1
 Pr  Pr2  1  0.58338  0.58338  0.16677  1
