CIF file written using JARVIS-Tools package.
data_K3Y
_symmetry_space_group_name_H-M  'P6_3/mmc'
_cell_length_a       8.50431
_cell_length_b       8.50431
_cell_length_c       7.01171
_cell_angle_alpha    90
_cell_angle_beta     90
_cell_angle_gamma    120

_symmetry_Int_Tables_number  194
_chemical_formula_structural  K3Y
_chemical_formula_sum  K6Y2
_cell_volume  439.17012371700037
_cell_formula_units_Z  2
loop_
  _symmetry_equiv_pos_site_id
 _symmetry_equiv_pos_as_xyz
 1  'x, y, z'
loop_
 _atom_site_type_symbol
 _atom_site_label
 _atom_site_symmetry_multiplicity
 _atom_site_fract_x
 _atom_site_fract_y
 _atom_site_fract_z
 _atom_site_fract_occupancy
 K  K1  1  0.17176  0.82824  0.75000  1
 K  K2  1  0.65647  0.82824  0.75000  1
 K  K3  1  0.17176  0.34353  0.75000  1
 K  K4  1  0.82824  0.17176  0.25000  1
 K  K5  1  0.34353  0.17176  0.25000  1
 K  K6  1  0.82824  0.65647  0.25000  1
 Y  Y1  1  0.33333  0.66667  0.25000  1
 Y  Y2  1  0.66667  0.33333  0.75000  1
