CIF file written using JARVIS-Tools package.
data_SmTlO3
_symmetry_space_group_name_H-M  'Pnma'
_cell_length_a       5.68114
_cell_length_b       6.0791
_cell_length_c       8.57287
_cell_angle_alpha    90
_cell_angle_beta     90
_cell_angle_gamma    90

_symmetry_Int_Tables_number  62
_chemical_formula_structural  SmTlO3
_chemical_formula_sum  Sm4Tl4O2
_cell_volume  296.07424757171145
_cell_formula_units_Z  4
loop_
  _symmetry_equiv_pos_site_id
 _symmetry_equiv_pos_as_xyz
 1  'x, y, z'
loop_
 _atom_site_type_symbol
 _atom_site_label
 _atom_site_symmetry_multiplicity
 _atom_site_fract_x
 _atom_site_fract_y
 _atom_site_fract_z
 _atom_site_fract_occupancy
 O  O1  1  0.31066  0.68793  0.58094  1
 O  O2  1  0.65611  0.07752  0.75000  1
 O  O3  1  0.81066  0.81207  0.41906  1
 O  O4  1  0.18934  0.18793  0.91906  1
 O  O5  1  0.68934  0.31207  0.41906  1
 O  O6  1  0.18934  0.18793  0.58094  1
 O  O7  1  0.15611  0.42248  0.25000  1
 O  O8  1  0.84389  0.57752  0.75000  1
 O  O9  1  0.31066  0.68793  0.91906  1
 O  O10  1  0.34389  0.92248  0.25000  1
 O  O11  1  0.81066  0.81207  0.08094  1
 O  O12  1  0.68934  0.31207  0.08094  1
 Sm  Sm1  1  0.02651  0.92993  0.75000  1
 Sm  Sm2  1  0.52651  0.57007  0.25000  1
 Sm  Sm3  1  0.47349  0.42993  0.75000  1
 Sm  Sm4  1  0.97349  0.07007  0.25000  1
 Tl  Tl1  1  0.00000  0.50000  0.50000  1
 Tl  Tl2  1  0.00000  0.50000  0.00000  1
 Tl  Tl3  1  0.50000  0.00000  0.50000  1
 Tl  Tl4  1  0.50000  0.00000  0.00000  1
