CIF file written using JARVIS-Tools package.
data_MgGeO3
_symmetry_space_group_name_H-M  'C2/c'
_cell_length_a       5.21601
_cell_length_b       6.60449
_cell_length_c       6.60449
_cell_angle_alpha    85.8269
_cell_angle_beta     82.2686
_cell_angle_gamma    82.2686

_symmetry_Int_Tables_number  15
_chemical_formula_structural  MgGeO3
_chemical_formula_sum  Mg4Ge4O2
_cell_volume  223.05421533378478
_cell_formula_units_Z  4
loop_
  _symmetry_equiv_pos_site_id
 _symmetry_equiv_pos_as_xyz
 1  'x, y, z'
loop_
 _atom_site_type_symbol
 _atom_site_label
 _atom_site_symmetry_multiplicity
 _atom_site_fract_x
 _atom_site_fract_y
 _atom_site_fract_z
 _atom_site_fract_occupancy
 Ge  Ge1  1  0.29027  0.20499  0.39617  1
 Ge  Ge2  1  0.70973  0.79501  0.60383  1
 Ge  Ge3  1  0.79027  0.39617  0.20499  1
 Ge  Ge4  1  0.20973  0.60383  0.79501  1
 Mg  Mg1  1  0.25000  0.72999  0.27001  1
 Mg  Mg2  1  0.75000  0.27001  0.72999  1
 Mg  Mg3  1  0.25000  0.09191  0.90809  1
 Mg  Mg4  1  0.75000  0.90809  0.09191  1
 O  O1  1  0.89939  0.56627  0.70898  1
 O  O2  1  0.39939  0.70898  0.56627  1
 O  O3  1  0.10061  0.43373  0.29102  1
 O  O4  1  0.11645  0.13838  0.62791  1
 O  O5  1  0.38355  0.37209  0.86162  1
 O  O6  1  0.12972  0.79464  0.97510  1
 O  O7  1  0.61645  0.62791  0.13838  1
 O  O8  1  0.60061  0.29102  0.43373  1
 O  O9  1  0.87028  0.20536  0.02490  1
 O  O10  1  0.37028  0.02490  0.20536  1
 O  O11  1  0.88355  0.86162  0.37209  1
 O  O12  1  0.62972  0.97510  0.79464  1
