CIF file written using JARVIS-Tools package.
data_Si3Pt
_symmetry_space_group_name_H-M  'P6_3/mmc'
_cell_length_a       7.50514
_cell_length_b       7.50514
_cell_length_c       2.74374
_cell_angle_alpha    90
_cell_angle_beta     90
_cell_angle_gamma    120

_symmetry_Int_Tables_number  194
_chemical_formula_structural  Si3Pt
_chemical_formula_sum  Si6Pt2
_cell_volume  133.8413363990576
_cell_formula_units_Z  2
loop_
  _symmetry_equiv_pos_site_id
 _symmetry_equiv_pos_as_xyz
 1  'x, y, z'
loop_
 _atom_site_type_symbol
 _atom_site_label
 _atom_site_symmetry_multiplicity
 _atom_site_fract_x
 _atom_site_fract_y
 _atom_site_fract_z
 _atom_site_fract_occupancy
 Pt  Pt1  1  0.33333  0.66667  0.75000  1
 Pt  Pt2  1  0.66667  0.33333  0.25000  1
 Si  Si1  1  0.16923  0.33847  0.25000  1
 Si  Si2  1  0.66153  0.83077  0.25000  1
 Si  Si3  1  0.16923  0.83077  0.25000  1
 Si  Si4  1  0.83077  0.66153  0.75000  1
 Si  Si5  1  0.33847  0.16923  0.75000  1
 Si  Si6  1  0.83077  0.16923  0.75000  1
