CIF file written using JARVIS-Tools package.
data_PaBr4
_symmetry_space_group_name_H-M  'I4_1/amd'
_cell_length_a       7.43244
_cell_length_b       7.43245
_cell_length_c       7.43245
_cell_angle_alpha    106.687
_cell_angle_beta     106.687
_cell_angle_gamma    115.195

_symmetry_Int_Tables_number  141
_chemical_formula_structural  PaBr4
_chemical_formula_sum  Pa2Br8
_cell_volume  313.6727859556229
_cell_formula_units_Z  2
loop_
  _symmetry_equiv_pos_site_id
 _symmetry_equiv_pos_as_xyz
 1  'x, y, z'
loop_
 _atom_site_type_symbol
 _atom_site_label
 _atom_site_symmetry_multiplicity
 _atom_site_fract_x
 _atom_site_fract_y
 _atom_site_fract_z
 _atom_site_fract_occupancy
 Br  Br1  1  0.35974  0.79787  0.56187  1
 Br  Br2  1  0.79787  0.73599  0.43813  1
 Br  Br3  1  0.79787  0.35974  0.06187  1
 Br  Br4  1  0.73599  0.79787  0.93813  1
 Br  Br5  1  0.20213  0.64026  0.93813  1
 Br  Br6  1  0.26401  0.20213  0.06187  1
 Br  Br7  1  0.64026  0.20213  0.43813  1
 Br  Br8  1  0.20213  0.26401  0.56187  1
 Pa  Pa1  1  0.12500  0.87500  0.25000  1
 Pa  Pa2  1  0.87500  0.12500  0.75000  1
