CIF file written using JARVIS-Tools package.
data_CaPtF6
_symmetry_space_group_name_H-M  'R-3'
_cell_length_a       5.82052
_cell_length_b       5.82052
_cell_length_c       5.82052
_cell_angle_alpha    52.763
_cell_angle_beta     52.7629
_cell_angle_gamma    52.7629

_symmetry_Int_Tables_number  148
_chemical_formula_structural  CaPtF6
_chemical_formula_sum  CaPtF6
_cell_volume  115.76488367541366
_cell_formula_units_Z  1
loop_
  _symmetry_equiv_pos_site_id
 _symmetry_equiv_pos_as_xyz
 1  'x, y, z'
loop_
 _atom_site_type_symbol
 _atom_site_label
 _atom_site_symmetry_multiplicity
 _atom_site_fract_x
 _atom_site_fract_y
 _atom_site_fract_z
 _atom_site_fract_occupancy
 Ca  Ca1  1  0.50000  0.50000  0.50000  1
 F  F1  1  0.39011  0.06453  0.77820  1
 F  F2  1  0.06453  0.77820  0.39011  1
 F  F3  1  0.22180  0.60989  0.93547  1
 F  F4  1  0.93547  0.22180  0.60989  1
 F  F5  1  0.60989  0.93547  0.22180  1
 F  F6  1  0.77820  0.39011  0.06453  1
 Pt  Pt1  1  0.00000  0.00000  0.00000  1
