CIF file written using JARVIS-Tools package.
data_PuN
_symmetry_space_group_name_H-M  'Fm-3m'
_cell_length_a       3.48646
_cell_length_b       3.48646
_cell_length_c       3.48645
_cell_angle_alpha    60
_cell_angle_beta     60
_cell_angle_gamma    60

_symmetry_Int_Tables_number  225
_chemical_formula_structural  PuN
_chemical_formula_sum  PuN
_cell_volume  29.96651545921317
_cell_formula_units_Z  1
loop_
  _symmetry_equiv_pos_site_id
 _symmetry_equiv_pos_as_xyz
 1  'x, y, z'
loop_
 _atom_site_type_symbol
 _atom_site_label
 _atom_site_symmetry_multiplicity
 _atom_site_fract_x
 _atom_site_fract_y
 _atom_site_fract_z
 _atom_site_fract_occupancy
 N  N1  1  0.50000  0.50000  0.50000  1
 Pu  Pu1  1  0.00000  0.00000  0.00000  1
