CIF file written using JARVIS-Tools package.
data_Na4PbO4
_symmetry_space_group_name_H-M  'P-1'
_cell_length_a       5.97849
_cell_length_b       5.9738
_cell_length_c       9.04267
_cell_angle_alpha    82.4904
_cell_angle_beta     70.8805
_cell_angle_gamma    68.8372

_symmetry_Int_Tables_number  2
_chemical_formula_structural  Na4PbO4
_chemical_formula_sum  Na8Pb2O8
_cell_volume  284.53022053086903
_cell_formula_units_Z  2
loop_
  _symmetry_equiv_pos_site_id
 _symmetry_equiv_pos_as_xyz
 1  'x, y, z'
loop_
 _atom_site_type_symbol
 _atom_site_label
 _atom_site_symmetry_multiplicity
 _atom_site_fract_x
 _atom_site_fract_y
 _atom_site_fract_z
 _atom_site_fract_occupancy
 Na  Na1  1  0.74895  0.75063  0.99507  1
 Na  Na2  1  0.25105  0.24937  0.00493  1
 Na  Na3  1  0.43650  0.25406  0.59143  1
 Na  Na4  1  0.56350  0.74594  0.40857  1
 Na  Na5  1  0.02018  0.26418  0.43072  1
 Na  Na6  1  0.97982  0.73582  0.56928  1
 Na  Na7  1  0.88735  0.27756  0.79361  1
 Na  Na8  1  0.11265  0.72244  0.20639  1
 O  O1  1  0.80095  0.00783  0.38641  1
 O  O2  1  0.19905  0.99217  0.61359  1
 O  O3  1  0.68615  0.51382  0.62167  1
 O  O4  1  0.31385  0.48618  0.37833  1
 O  O5  1  0.65213  0.15738  0.02464  1
 O  O6  1  0.11427  0.50983  0.80418  1
 O  O7  1  0.34787  0.84262  0.97536  1
 O  O8  1  0.88573  0.49017  0.19582  1
 Pb  Pb1  1  0.33893  0.72570  0.77158  1
 Pb  Pb2  1  0.66107  0.27430  0.22842  1
