CIF file written using JARVIS-Tools package.
data_Cd2B2O5
_symmetry_space_group_name_H-M  'P-1'
_cell_length_a       3.47717
_cell_length_b       6.39905
_cell_length_c       10.048
_cell_angle_alpha    105.256
_cell_angle_beta     90.4948
_cell_angle_gamma    92.2952

_symmetry_Int_Tables_number  2
_chemical_formula_structural  Cd2B2O5
_chemical_formula_sum  Cd4B4O0
_cell_volume  215.479950220909
_cell_formula_units_Z  2
loop_
  _symmetry_equiv_pos_site_id
 _symmetry_equiv_pos_as_xyz
 1  'x, y, z'
loop_
 _atom_site_type_symbol
 _atom_site_label
 _atom_site_symmetry_multiplicity
 _atom_site_fract_x
 _atom_site_fract_y
 _atom_site_fract_z
 _atom_site_fract_occupancy
 B  B1  1  0.68457  0.12773  0.31980  1
 B  B2  1  0.31543  0.87227  0.68020  1
 B  B3  1  0.66638  0.67266  0.84423  1
 B  B4  1  0.33362  0.32734  0.15577  1
 Cd  Cd1  1  0.75300  0.21962  0.87573  1
 Cd  Cd2  1  0.24700  0.78038  0.12427  1
 Cd  Cd3  1  0.77544  0.65465  0.40718  1
 Cd  Cd4  1  0.22456  0.34535  0.59282  1
 O  O1  1  0.27881  0.52473  0.24682  1
 O  O2  1  0.51348  0.84405  0.79837  1
 O  O3  1  0.26976  0.70380  0.56362  1
 O  O4  1  0.48652  0.15595  0.20163  1
 O  O5  1  0.74115  0.71232  0.98207  1
 O  O6  1  0.81296  0.92413  0.30328  1
 O  O7  1  0.25885  0.28768  0.01793  1
 O  O8  1  0.73024  0.29620  0.43638  1
 O  O9  1  0.18704  0.07587  0.69672  1
 O  O10  1  0.72119  0.47527  0.75318  1
