CIF file written using JARVIS-Tools package.
data_TbH3O3
_symmetry_space_group_name_H-M  'P6_3/m'
_cell_length_a       6.29161
_cell_length_b       3.56942
_cell_length_c       6.29217
_cell_angle_alpha    90
_cell_angle_beta     119.979
_cell_angle_gamma    90

_symmetry_Int_Tables_number  176
_chemical_formula_structural  TbH3O3
_chemical_formula_sum  Tb2H6O6
_cell_volume  122.40000002092663
_cell_formula_units_Z  2
loop_
  _symmetry_equiv_pos_site_id
 _symmetry_equiv_pos_as_xyz
 1  'x, y, z'
loop_
 _atom_site_type_symbol
 _atom_site_label
 _atom_site_symmetry_multiplicity
 _atom_site_fract_x
 _atom_site_fract_y
 _atom_site_fract_z
 _atom_site_fract_occupancy
 H  H1  1  0.86526  0.75000  0.72606  1
 H  H2  1  0.27368  0.75000  0.13905  1
 H  H3  1  0.86118  0.75000  0.13473  1
 H  H4  1  0.13474  0.25000  0.27394  1
 H  H5  1  0.72632  0.25000  0.86095  1
 H  H6  1  0.13882  0.25000  0.86527  1
 O  O1  1  0.68993  0.75000  0.60666  1
 O  O2  1  0.39320  0.75000  0.08320  1
 O  O3  1  0.91685  0.75000  0.31002  1
 O  O4  1  0.31007  0.25000  0.39334  1
 O  O5  1  0.60680  0.25000  0.91680  1
 O  O6  1  0.08315  0.25000  0.68998  1
 Tb  Tb1  1  0.33338  0.75000  0.66673  1
 Tb  Tb2  1  0.66662  0.25000  0.33327  1
