CIF file written using JARVIS-Tools package.
data_Tb2CuGe4O12
_symmetry_space_group_name_H-M  'P-1'
_cell_length_a       4.95527
_cell_length_b       7.27622
_cell_length_c       7.98456
_cell_angle_alpha    113.135
_cell_angle_beta     87.2996
_cell_angle_gamma    102.671

_symmetry_Int_Tables_number  2
_chemical_formula_structural  Tb2CuGe4O12
_chemical_formula_sum  Tb2CuGe4O2
_cell_volume  258.0432488341762
_cell_formula_units_Z  1
loop_
  _symmetry_equiv_pos_site_id
 _symmetry_equiv_pos_as_xyz
 1  'x, y, z'
loop_
 _atom_site_type_symbol
 _atom_site_label
 _atom_site_symmetry_multiplicity
 _atom_site_fract_x
 _atom_site_fract_y
 _atom_site_fract_z
 _atom_site_fract_occupancy
 Cu  Cu1  1  0.00000  0.00000  0.00000  1
 Ge  Ge1  1  0.46022  0.83324  0.22259  1
 Ge  Ge2  1  0.53978  0.16676  0.77741  1
 Ge  Ge3  1  0.41794  0.61723  0.79628  1
 Ge  Ge4  1  0.58206  0.38277  0.20372  1
 O  O1  1  0.25019  0.22841  0.19027  1
 O  O2  1  0.22706  0.93471  0.38881  1
 O  O3  1  0.77294  0.06529  0.61119  1
 O  O4  1  0.74964  0.01142  0.20148  1
 O  O5  1  0.77970  0.42168  0.39601  1
 O  O6  1  0.22030  0.57832  0.60399  1
 O  O7  1  0.73998  0.30934  0.98879  1
 O  O8  1  0.26002  0.69066  0.01121  1
 O  O9  1  0.59254  0.65792  0.28860  1
 O  O10  1  0.74981  0.77159  0.80973  1
 O  O11  1  0.25036  0.98858  0.79852  1
 O  O12  1  0.40746  0.34208  0.71140  1
 Tb  Tb1  1  0.05018  0.23204  0.45314  1
 Tb  Tb2  1  0.94982  0.76796  0.54686  1
