CIF file written using JARVIS-Tools package.
data_Yb2CuGe4O12
_symmetry_space_group_name_H-M  'P-1'
_cell_length_a       4.84309
_cell_length_b       7.21275
_cell_length_c       7.8857
_cell_angle_alpha    112.649
_cell_angle_beta     87.2774
_cell_angle_gamma    103.548

_symmetry_Int_Tables_number  2
_chemical_formula_structural  Yb2CuGe4O12
_chemical_formula_sum  Yb2CuGe4O2
_cell_volume  246.8662263730021
_cell_formula_units_Z  1
loop_
  _symmetry_equiv_pos_site_id
 _symmetry_equiv_pos_as_xyz
 1  'x, y, z'
loop_
 _atom_site_type_symbol
 _atom_site_label
 _atom_site_symmetry_multiplicity
 _atom_site_fract_x
 _atom_site_fract_y
 _atom_site_fract_z
 _atom_site_fract_occupancy
 Cu  Cu1  1  0.00000  0.00000  0.00000  1
 Ge  Ge1  1  0.46138  0.83125  0.22456  1
 Ge  Ge2  1  0.53862  0.16875  0.77544  1
 Ge  Ge3  1  0.40833  0.62220  0.80103  1
 Ge  Ge4  1  0.59167  0.37780  0.19897  1
 O  O1  1  0.23347  0.23278  0.17523  1
 O  O2  1  0.24332  0.94190  0.39725  1
 O  O3  1  0.75668  0.05810  0.60275  1
 O  O4  1  0.75870  0.01511  0.19326  1
 O  O5  1  0.74739  0.40414  0.40416  1
 O  O6  1  0.25261  0.59586  0.59584  1
 O  O7  1  0.75866  0.29450  0.98472  1
 O  O8  1  0.24134  0.70550  0.01528  1
 O  O9  1  0.61889  0.65254  0.26840  1
 O  O10  1  0.76653  0.76722  0.82477  1
 O  O11  1  0.24130  0.98489  0.80674  1
 O  O12  1  0.38111  0.34746  0.73160  1
 Yb  Yb1  1  0.06853  0.23662  0.45578  1
 Yb  Yb2  1  0.93147  0.76338  0.54422  1
