CIF file written using JARVIS-Tools package.
data_Ca2AlSnO5
_symmetry_space_group_name_H-M  'P1'
_cell_length_a       5.58175
_cell_length_b       6.01411
_cell_length_c       8.03247
_cell_angle_alpha    107.909
_cell_angle_beta     106.096
_cell_angle_gamma    92.0956

_symmetry_Int_Tables_number  1
_chemical_formula_structural  Ca2AlSnO5
_chemical_formula_sum  Ca4Al2Sn2O0
_cell_volume  244.32307878179785
_cell_formula_units_Z  2
loop_
  _symmetry_equiv_pos_site_id
 _symmetry_equiv_pos_as_xyz
 1  'x, y, z'
loop_
 _atom_site_type_symbol
 _atom_site_label
 _atom_site_symmetry_multiplicity
 _atom_site_fract_x
 _atom_site_fract_y
 _atom_site_fract_z
 _atom_site_fract_occupancy
 Al  Al1  1  0.27852  0.33759  0.51236  1
 Al  Al2  1  0.77821  0.66231  0.48642  1
 Ca  Ca1  1  0.17109  0.71071  0.28082  1
 Ca  Ca2  1  0.43991  0.89034  0.77369  1
 Ca  Ca3  1  0.88189  0.31689  0.75623  1
 Ca  Ca4  1  0.66805  0.06637  0.27208  1
 O  O1  1  0.68040  0.19261  0.01625  1
 O  O2  1  0.10669  0.59626  0.54254  1
 O  O3  1  0.75651  0.67156  0.26501  1
 O  O4  1  0.58592  0.41481  0.49129  1
 O  O5  1  0.10557  0.10100  0.30913  1
 O  O6  1  0.21760  0.37927  0.07948  1
 O  O7  1  0.34527  0.80658  0.05602  1
 O  O8  1  0.28738  0.26658  0.71408  1
 O  O9  1  0.65459  0.92913  0.56803  1
 O  O10  1  0.73077  0.64627  0.89720  1
 Sn  Sn1  1  0.03949  0.01869  0.00119  1
 Sn  Sn2  1  0.50993  0.48855  0.00466  1
