CIF file written using JARVIS-Tools package.
data_TiPRu
_symmetry_space_group_name_H-M  'P-62m'
_cell_length_a       6.27761
_cell_length_b       6.27761
_cell_length_c       3.67458
_cell_angle_alpha    90
_cell_angle_beta     90
_cell_angle_gamma    120

_symmetry_Int_Tables_number  189
_chemical_formula_structural  TiPRu
_chemical_formula_sum  Ti3P3Ru3
_cell_volume  125.40846637135954
_cell_formula_units_Z  3
loop_
  _symmetry_equiv_pos_site_id
 _symmetry_equiv_pos_as_xyz
 1  'x, y, z'
loop_
 _atom_site_type_symbol
 _atom_site_label
 _atom_site_symmetry_multiplicity
 _atom_site_fract_x
 _atom_site_fract_y
 _atom_site_fract_z
 _atom_site_fract_occupancy
 P  P1  1  0.00000  0.00000  0.50000  1
 P  P2  1  0.33333  0.66667  0.00000  1
 P  P3  1  0.66667  0.33333  0.00000  1
 Ru  Ru1  1  0.74891  0.74891  0.00000  1
 Ru  Ru2  1  0.25109  -0.00000  0.00000  1
 Ru  Ru3  1  -0.00000  0.25109  0.00000  1
 Ti  Ti1  1  0.00000  0.58404  0.50000  1
 Ti  Ti2  1  0.58404  0.00000  0.50000  1
 Ti  Ti3  1  0.41596  0.41596  0.50000  1
