CIF file written using JARVIS-Tools package.
data_SmCd3
_symmetry_space_group_name_H-M  'P6_3/mmc'
_cell_length_a       6.69646
_cell_length_b       6.69646
_cell_length_c       4.97679
_cell_angle_alpha    90
_cell_angle_beta     90
_cell_angle_gamma    120

_symmetry_Int_Tables_number  194
_chemical_formula_structural  SmCd3
_chemical_formula_sum  Sm2Cd6
_cell_volume  193.27278298031558
_cell_formula_units_Z  2
loop_
  _symmetry_equiv_pos_site_id
 _symmetry_equiv_pos_as_xyz
 1  'x, y, z'
loop_
 _atom_site_type_symbol
 _atom_site_label
 _atom_site_symmetry_multiplicity
 _atom_site_fract_x
 _atom_site_fract_y
 _atom_site_fract_z
 _atom_site_fract_occupancy
 Cd  Cd1  1  0.16111  0.32222  0.25000  1
 Cd  Cd2  1  0.67778  0.83889  0.25000  1
 Cd  Cd3  1  0.16111  0.83889  0.25000  1
 Cd  Cd4  1  0.83889  0.67778  0.75000  1
 Cd  Cd5  1  0.32222  0.16111  0.75000  1
 Cd  Cd6  1  0.83889  0.16111  0.75000  1
 Sm  Sm1  1  0.33333  0.66667  0.75000  1
 Sm  Sm2  1  0.66667  0.33333  0.25000  1
