CIF file written using JARVIS-Tools package.
data_Bi2SeO6
_symmetry_space_group_name_H-M  'Cc'
_cell_length_a       5.74802
_cell_length_b       5.76197
_cell_length_c       8.3713
_cell_angle_alpha    90.7683
_cell_angle_beta     69.9205
_cell_angle_gamma    92.2326

_symmetry_Int_Tables_number  9
_chemical_formula_structural  Bi2SeO6
_chemical_formula_sum  Bi4Se2O2
_cell_volume  260.2066277269105
_cell_formula_units_Z  2
loop_
  _symmetry_equiv_pos_site_id
 _symmetry_equiv_pos_as_xyz
 1  'x, y, z'
loop_
 _atom_site_type_symbol
 _atom_site_label
 _atom_site_symmetry_multiplicity
 _atom_site_fract_x
 _atom_site_fract_y
 _atom_site_fract_z
 _atom_site_fract_occupancy
 Bi  Bi1  1  0.12478  0.50283  0.65529  1
 Bi  Bi2  1  0.62186  0.01028  0.65632  1
 Bi  Bi3  1  0.28006  0.00282  0.34471  1
 Bi  Bi4  1  0.77818  0.51027  0.34368  1
 O  O1  1  0.34876  0.65923  0.85814  1
 O  O2  1  0.13476  0.10826  0.83827  1
 O  O3  1  0.03225  0.83776  0.14455  1
 O  O4  1  0.67687  0.33780  0.85544  1
 O  O5  1  0.78923  0.78352  0.87077  1
 O  O6  1  -0.04394  0.24809  0.49693  1
 O  O7  1  0.45110  0.26441  0.50567  1
 O  O8  1  -0.04701  0.74809  0.50307  1
 O  O9  1  0.47302  0.60828  0.16173  1
 O  O10  1  0.16005  0.28344  0.12924  1
 O  O11  1  0.45677  0.76441  0.49433  1
 O  O12  1  0.70692  0.15927  0.14186  1
 Se  Se1  1  0.55357  0.58564  -0.05083  1
 Se  Se2  1  0.00275  0.08561  0.05082  1
