CIF file written using JARVIS-Tools package.
data_Ti3N2O3
_symmetry_space_group_name_H-M  'Cm'
_cell_length_a       3.84702
_cell_length_b       5.23829
_cell_length_c       9.89732
_cell_angle_alpha    90.4816
_cell_angle_beta     90
_cell_angle_gamma    111.543

_symmetry_Int_Tables_number  8
_chemical_formula_structural  Ti3N2O3
_chemical_formula_sum  Ti6N4O6
_cell_volume  185.50839825528698
_cell_formula_units_Z  2
loop_
  _symmetry_equiv_pos_site_id
 _symmetry_equiv_pos_as_xyz
 1  'x, y, z'
loop_
 _atom_site_type_symbol
 _atom_site_label
 _atom_site_symmetry_multiplicity
 _atom_site_fract_x
 _atom_site_fract_y
 _atom_site_fract_z
 _atom_site_fract_occupancy
 N  N1  1  0.30529  0.61058  0.42817  1
 N  N2  1  0.31112  0.62223  0.07902  1
 N  N3  1  0.23767  0.47533  0.74493  1
 N  N4  1  0.69362  0.38725  0.92690  1
 O  O1  1  0.04745  0.09490  0.11790  1
 O  O2  1  0.04205  0.08411  0.37691  1
 O  O3  1  0.95241  0.90482  0.61540  1
 O  O4  1  0.95476  0.90953  0.88116  1
 O  O5  1  0.68376  0.36751  0.57023  1
 O  O6  1  0.75358  0.50716  0.25109  1
 Ti  Ti1  1  0.14562  0.29125  0.56594  1
 Ti  Ti2  1  0.14730  0.29460  0.94031  1
 Ti  Ti3  1  0.20052  0.40103  0.24902  1
 Ti  Ti4  1  0.80029  0.60057  0.75709  1
 Ti  Ti5  1  0.85950  0.71899  0.05658  1
 Ti  Ti6  1  0.86507  0.73013  0.43934  1
