CIF file written using JARVIS-Tools package.
data_C
_symmetry_space_group_name_H-M  'R-3m'
_cell_length_a       9.75052
_cell_length_b       9.75052
_cell_length_c       9.75052
_cell_angle_alpha    56.1635
_cell_angle_beta     56.1635
_cell_angle_gamma    56.1635

_symmetry_Int_Tables_number  166
_chemical_formula_structural  C
_chemical_formula_sum  C60
_cell_volume  597.2766967573721
_cell_formula_units_Z  60
loop_
  _symmetry_equiv_pos_site_id
 _symmetry_equiv_pos_as_xyz
 1  'x, y, z'
loop_
 _atom_site_type_symbol
 _atom_site_label
 _atom_site_symmetry_multiplicity
 _atom_site_fract_x
 _atom_site_fract_y
 _atom_site_fract_z
 _atom_site_fract_occupancy
 C  C1  1  0.87408  0.02691  0.71583  1
 C  C2  1  0.02691  0.71583  0.87408  1
 C  C3  1  0.47192  0.91694  0.64532  1
 C  C4  1  0.71583  0.02691  0.87408  1
 C  C5  1  0.52808  0.08306  0.35468  1
 C  C6  1  0.24962  0.57181  0.24962  1
 C  C7  1  0.91694  0.64532  0.47192  1
 C  C8  1  0.88844  0.63035  0.19626  1
 C  C9  1  0.57181  0.24962  0.24962  1
 C  C10  1  0.19626  0.88844  0.63035  1
 C  C11  1  0.79111  0.94539  0.45612  1
 C  C12  1  0.73638  0.73638  0.30629  1
 C  C13  1  0.30629  0.73638  0.73638  1
 C  C14  1  0.24962  0.24962  0.57181  1
 C  C15  1  0.64532  0.47192  0.91694  1
 C  C16  1  0.97309  0.28417  0.12592  1
 C  C17  1  0.54388  0.05461  0.20889  1
 C  C18  1  0.20889  0.05461  0.54388  1
 C  C19  1  0.97309  0.12592  0.28417  1
 C  C20  1  0.35468  0.08306  0.52808  1
 C  C21  1  0.94539  0.45612  0.79111  1
 C  C22  1  0.45612  0.94539  0.79111  1
 C  C23  1  0.73638  0.30629  0.73638  1
 C  C24  1  0.64532  0.91694  0.47192  1
 C  C25  1  0.12592  0.97309  0.28417  1
 C  C26  1  0.63035  0.19626  0.88844  1
 C  C27  1  0.28417  0.12592  0.97309  1
 C  C28  1  0.08306  0.52808  0.35468  1
 C  C29  1  0.19626  0.63035  0.88844  1
 C  C30  1  0.69371  0.26362  0.26362  1
 C  C31  1  0.75038  0.42819  0.75038  1
 C  C32  1  0.91694  0.47192  0.64532  1
 C  C33  1  0.52808  0.35468  0.08306  1
 C  C34  1  0.05461  0.20889  0.54388  1
 C  C35  1  0.42819  0.75038  0.75038  1
 C  C36  1  0.75038  0.75038  0.42819  1
 C  C37  1  0.45612  0.79111  0.94539  1
 C  C38  1  0.87408  0.71583  0.02691  1
 C  C39  1  0.26362  0.69371  0.26362  1
 C  C40  1  0.05461  0.54388  0.20889  1
 C  C41  1  0.94539  0.79111  0.45612  1
 C  C42  1  0.35468  0.52808  0.08306  1
 C  C43  1  0.26362  0.26362  0.69371  1
 C  C44  1  0.02691  0.87408  0.71583  1
 C  C45  1  0.47192  0.64532  0.91694  1
 C  C46  1  0.08306  0.35468  0.52808  1
 C  C47  1  0.88844  0.19626  0.63035  1
 C  C48  1  0.28417  0.97309  0.12592  1
 C  C49  1  0.20889  0.54388  0.05461  1
 C  C50  1  0.11156  0.80374  0.36965  1
 C  C51  1  0.63035  0.88844  0.19626  1
 C  C52  1  0.36965  0.11156  0.80374  1
 C  C53  1  0.12592  0.28417  0.97309  1
 C  C54  1  0.80374  0.36965  0.11156  1
 C  C55  1  0.79111  0.45612  0.94539  1
 C  C56  1  0.71583  0.87408  0.02691  1
 C  C57  1  0.54388  0.20889  0.05461  1
 C  C58  1  0.80374  0.11156  0.36965  1
 C  C59  1  0.11156  0.36965  0.80374  1
 C  C60  1  0.36965  0.80374  0.11156  1
