CIF file written using JARVIS-Tools package.
data_NaSbO3
_symmetry_space_group_name_H-M  'R-3'
_cell_length_a       6.14812
_cell_length_b       6.14812
_cell_length_c       6.14811
_cell_angle_alpha    51.8491
_cell_angle_beta     51.849
_cell_angle_gamma    51.849

_symmetry_Int_Tables_number  148
_chemical_formula_structural  NaSbO3
_chemical_formula_sum  Na2Sb2O6
_cell_volume  132.82341822335678
_cell_formula_units_Z  2
loop_
  _symmetry_equiv_pos_site_id
 _symmetry_equiv_pos_as_xyz
 1  'x, y, z'
loop_
 _atom_site_type_symbol
 _atom_site_label
 _atom_site_symmetry_multiplicity
 _atom_site_fract_x
 _atom_site_fract_y
 _atom_site_fract_z
 _atom_site_fract_occupancy
 Na  Na1  1  0.63924  0.63924  0.63924  1
 Na  Na2  1  0.36076  0.36076  0.36076  1
 O  O1  1  0.95952  0.19457  0.56025  1
 O  O2  1  0.19457  0.56025  0.95952  1
 O  O3  1  0.56025  0.95952  0.19457  1
 O  O4  1  0.04048  0.80543  0.43975  1
 O  O5  1  0.43975  0.04048  0.80543  1
 O  O6  1  0.80543  0.43975  0.04048  1
 Sb  Sb1  1  0.83989  0.83989  0.83989  1
 Sb  Sb2  1  0.16011  0.16011  0.16011  1
