CIF file written using JARVIS-Tools package.
data_UCr3
_symmetry_space_group_name_H-M  'Fm-3m'
_cell_length_a       4.29577
_cell_length_b       4.29577
_cell_length_c       4.29577
_cell_angle_alpha    119.994
_cell_angle_beta     119.994
_cell_angle_gamma    90.0109

_symmetry_Int_Tables_number  225
_chemical_formula_structural  UCr3
_chemical_formula_sum  UCr3
_cell_volume  56.05975309809662
_cell_formula_units_Z  1
loop_
  _symmetry_equiv_pos_site_id
 _symmetry_equiv_pos_as_xyz
 1  'x, y, z'
loop_
 _atom_site_type_symbol
 _atom_site_label
 _atom_site_symmetry_multiplicity
 _atom_site_fract_x
 _atom_site_fract_y
 _atom_site_fract_z
 _atom_site_fract_occupancy
 Cr  Cr1  1  0.75000  0.25000  0.50000  1
 Cr  Cr2  1  0.25000  0.75000  0.50000  1
 Cr  Cr3  1  0.50000  0.50000  0.00000  1
 U  U1  1  0.00000  0.00000  0.00000  1
