CIF file written using JARVIS-Tools package.
data_Ta2B
_symmetry_space_group_name_H-M  'I4/mcm'
_cell_length_a       4.77799
_cell_length_b       4.77799
_cell_length_c       4.77799
_cell_angle_alpha    105.258
_cell_angle_beta     105.258
_cell_angle_gamma    118.272

_symmetry_Int_Tables_number  140
_chemical_formula_structural  Ta2B
_chemical_formula_sum  Ta4B2
_cell_volume  82.46142598204021
_cell_formula_units_Z  2
loop_
  _symmetry_equiv_pos_site_id
 _symmetry_equiv_pos_as_xyz
 1  'x, y, z'
loop_
 _atom_site_type_symbol
 _atom_site_label
 _atom_site_symmetry_multiplicity
 _atom_site_fract_x
 _atom_site_fract_y
 _atom_site_fract_z
 _atom_site_fract_occupancy
 B  B1  1  0.75000  0.75000  0.00000  1
 B  B2  1  0.25000  0.25000  0.00000  1
 Ta  Ta1  1  0.83263  0.66737  0.50000  1
 Ta  Ta2  1  0.33263  0.83263  0.16525  1
 Ta  Ta3  1  0.16737  0.33263  0.50000  1
 Ta  Ta4  1  0.66737  0.16737  0.83475  1
