CIF file written using JARVIS-Tools package.
data_HC12N8
_symmetry_space_group_name_H-M  'Pm-3m'
_cell_length_a       5.09792
_cell_length_b       5.09792
_cell_length_c       5.09791
_cell_angle_alpha    90
_cell_angle_beta     90
_cell_angle_gamma    90

_symmetry_Int_Tables_number  221
_chemical_formula_structural  HC12N8
_chemical_formula_sum  HC2N8
_cell_volume  132.48866544873502
_cell_formula_units_Z  1
loop_
  _symmetry_equiv_pos_site_id
 _symmetry_equiv_pos_as_xyz
 1  'x, y, z'
loop_
 _atom_site_type_symbol
 _atom_site_label
 _atom_site_symmetry_multiplicity
 _atom_site_fract_x
 _atom_site_fract_y
 _atom_site_fract_z
 _atom_site_fract_occupancy
 C  C1  1  0.15522  0.50000  0.15998  1
 C  C2  1  0.15522  0.84478  0.50476  1
 C  C3  1  0.84478  0.15522  0.50476  1
 C  C4  1  0.84478  0.84478  0.50476  1
 C  C5  1  0.50000  0.15522  0.84954  1
 C  C6  1  0.50000  0.84478  0.15998  1
 C  C7  1  0.15522  0.15522  0.50476  1
 C  C8  1  0.50000  0.84478  0.84954  1
 C  C9  1  0.84478  0.50000  0.15998  1
 C  C10  1  0.15522  0.50000  0.84954  1
 C  C11  1  0.50000  0.15522  0.15998  1
 C  C12  1  0.84478  0.50000  0.84954  1
 H  H1  1  0.50000  0.50000  0.50482  1
 N  N1  1  0.74270  0.25730  0.26206  1
 N  N2  1  0.74270  0.74270  0.74746  1
 N  N3  1  0.25730  0.25730  0.26206  1
 N  N4  1  0.25730  0.74270  0.26206  1
 N  N5  1  0.74270  0.25730  0.74746  1
 N  N6  1  0.25730  0.25730  0.74746  1
 N  N7  1  0.74270  0.74270  0.26206  1
 N  N8  1  0.25730  0.74270  0.74746  1
