CIF file written using JARVIS-Tools package.
data_DyAl
_symmetry_space_group_name_H-M  'Pbcm'
_cell_length_a       5.59931
_cell_length_b       5.83497
_cell_length_c       11.4176
_cell_angle_alpha    90
_cell_angle_beta     90
_cell_angle_gamma    90

_symmetry_Int_Tables_number  57
_chemical_formula_structural  DyAl
_chemical_formula_sum  Dy8Al8
_cell_volume  373.0351270983351
_cell_formula_units_Z  8
loop_
  _symmetry_equiv_pos_site_id
 _symmetry_equiv_pos_as_xyz
 1  'x, y, z'
loop_
 _atom_site_type_symbol
 _atom_site_label
 _atom_site_symmetry_multiplicity
 _atom_site_fract_x
 _atom_site_fract_y
 _atom_site_fract_z
 _atom_site_fract_occupancy
 Al  Al1  1  0.50000  0.93096  0.25000  1
 Al  Al2  1  0.00000  0.06904  0.75000  1
 Al  Al3  1  0.50000  0.06904  0.75000  1
 Al  Al4  1  0.00000  0.93096  0.25000  1
 Al  Al5  1  0.25000  0.33988  0.59776  1
 Al  Al6  1  0.75000  0.66012  0.40224  1
 Al  Al7  1  0.75000  0.33988  0.90224  1
 Al  Al8  1  0.25000  0.66012  0.09776  1
 Dy  Dy1  1  0.25000  0.60044  0.83161  1
 Dy  Dy2  1  0.75000  0.39956  0.16839  1
 Dy  Dy3  1  0.75000  0.60044  0.66839  1
 Dy  Dy4  1  0.25000  0.39956  0.33161  1
 Dy  Dy5  1  0.25000  0.83905  0.51544  1
 Dy  Dy6  1  0.75000  0.16095  0.48456  1
 Dy  Dy7  1  0.75000  0.83905  0.98456  1
 Dy  Dy8  1  0.25000  0.16095  0.01544  1
