CIF file written using JARVIS-Tools package.
data_LiTmO2
_symmetry_space_group_name_H-M  'R-3m'
_cell_length_a       3.29638
_cell_length_b       5.32271
_cell_length_c       3.29638
_cell_angle_alpha    108.038
_cell_angle_beta     60
_cell_angle_gamma    108.038

_symmetry_Int_Tables_number  166
_chemical_formula_structural  LiTmO2
_chemical_formula_sum  LiTmO2
_cell_volume  46.777110345840676
_cell_formula_units_Z  1
loop_
  _symmetry_equiv_pos_site_id
 _symmetry_equiv_pos_as_xyz
 1  'x, y, z'
loop_
 _atom_site_type_symbol
 _atom_site_label
 _atom_site_symmetry_multiplicity
 _atom_site_fract_x
 _atom_site_fract_y
 _atom_site_fract_z
 _atom_site_fract_occupancy
 Li  Li1  1  0.00000  0.00000  0.00000  1
 O  O1  1  0.24550  0.73650  0.24550  1
 O  O2  1  0.75450  0.26350  0.75450  1
 Tm  Tm1  1  0.50000  0.50000  0.50000  1
