CIF file written using JARVIS-Tools package.
data_BeF2
_symmetry_space_group_name_H-M  'Cmmm'
_cell_length_a       2.40592
_cell_length_b       3.69975
_cell_length_c       5.26699
_cell_angle_alpha    135.382
_cell_angle_beta     90
_cell_angle_gamma    90

_symmetry_Int_Tables_number  65
_chemical_formula_structural  BeF2
_chemical_formula_sum  BeF2
_cell_volume  32.929655432844264
_cell_formula_units_Z  1
loop_
  _symmetry_equiv_pos_site_id
 _symmetry_equiv_pos_as_xyz
 1  'x, y, z'
loop_
 _atom_site_type_symbol
 _atom_site_label
 _atom_site_symmetry_multiplicity
 _atom_site_fract_x
 _atom_site_fract_y
 _atom_site_fract_z
 _atom_site_fract_occupancy
 Be  Be1  1  0.00000  0.00000  0.00000  1
 F  F1  1  0.50000  0.57807  0.78904  1
 F  F2  1  0.50000  0.42193  0.21096  1
