CIF file written using JARVIS-Tools package.
data_AgTe3I
_symmetry_space_group_name_H-M  'Pmna'
_cell_length_a       4.76556
_cell_length_b       8.87578
_cell_length_c       16.4401
_cell_angle_alpha    90
_cell_angle_beta     90
_cell_angle_gamma    90

_symmetry_Int_Tables_number  53
_chemical_formula_structural  AgTe3I
_chemical_formula_sum  Ag4Te2I4
_cell_volume  695.3830318208501
_cell_formula_units_Z  4
loop_
  _symmetry_equiv_pos_site_id
 _symmetry_equiv_pos_as_xyz
 1  'x, y, z'
loop_
 _atom_site_type_symbol
 _atom_site_label
 _atom_site_symmetry_multiplicity
 _atom_site_fract_x
 _atom_site_fract_y
 _atom_site_fract_z
 _atom_site_fract_occupancy
 Ag  Ag1  1  0.30297  0.75000  0.25000  1
 Ag  Ag2  1  0.30297  0.75000  0.75000  1
 Ag  Ag3  1  0.69703  0.25000  0.25000  1
 Ag  Ag4  1  0.69703  0.25000  0.75000  1
 I  I1  1  0.00000  0.50000  0.82629  1
 I  I2  1  0.00000  0.00000  0.67371  1
 I  I3  1  0.00000  0.50000  0.17371  1
 I  I4  1  0.00000  0.00000  0.32629  1
 Te  Te1  1  0.63333  0.28757  0.00000  1
 Te  Te2  1  0.64613  0.86085  0.87452  1
 Te  Te3  1  0.64613  0.63915  0.37452  1
 Te  Te4  1  0.63333  0.21243  0.50000  1
 Te  Te5  1  0.35387  0.13915  0.87452  1
 Te  Te6  1  0.36667  0.78757  0.50000  1
 Te  Te7  1  0.64613  0.86085  0.12548  1
 Te  Te8  1  0.36667  0.71243  0.00000  1
 Te  Te9  1  0.35387  0.36085  0.62548  1
 Te  Te10  1  0.64613  0.63915  0.62548  1
 Te  Te11  1  0.35387  0.13915  0.12548  1
 Te  Te12  1  0.35387  0.36085  0.37452  1
