CIF file written using JARVIS-Tools package.
data_Mn2S3
_symmetry_space_group_name_H-M  'R-3c'
_cell_length_a       5.74774
_cell_length_b       5.74766
_cell_length_c       6.24623
_cell_angle_alpha    90.001
_cell_angle_beta     117.392
_cell_angle_gamma    120

_symmetry_Int_Tables_number  167
_chemical_formula_structural  Mn2S3
_chemical_formula_sum  Mn4S6
_cell_volume  151.39961663330968
_cell_formula_units_Z  2
loop_
  _symmetry_equiv_pos_site_id
 _symmetry_equiv_pos_as_xyz
 1  'x, y, z'
loop_
 _atom_site_type_symbol
 _atom_site_label
 _atom_site_symmetry_multiplicity
 _atom_site_fract_x
 _atom_site_fract_y
 _atom_site_fract_z
 _atom_site_fract_occupancy
 Mn  Mn1  1  0.68467  0.34233  0.02701  1
 Mn  Mn2  1  0.31533  0.15767  0.47299  1
 Mn  Mn3  1  0.68467  0.84233  0.52701  1
 Mn  Mn4  1  0.31533  0.65767  0.97299  1
 S  S1  1  0.50001  0.07026  0.25001  1
 S  S2  1  0.17974  0.42974  0.24999  1
 S  S3  1  0.82025  0.74999  0.25000  1
 S  S4  1  0.17975  0.25001  0.75000  1
 S  S5  1  0.82026  0.57026  0.75001  1
 S  S6  1  0.50000  0.92974  0.74999  1
