CIF file written using JARVIS-Tools package.
data_NaTmO2
_symmetry_space_group_name_H-M  'C2/c'
_cell_length_a       5.83173
_cell_length_b       7.30171
_cell_length_c       5.9541
_cell_angle_alpha    75.0972
_cell_angle_beta     112.146
_cell_angle_gamma    75.7801

_symmetry_Int_Tables_number  15
_chemical_formula_structural  NaTmO2
_chemical_formula_sum  Na4Tm4O8
_cell_volume  209.65089346892526
_cell_formula_units_Z  4
loop_
  _symmetry_equiv_pos_site_id
 _symmetry_equiv_pos_as_xyz
 1  'x, y, z'
loop_
 _atom_site_type_symbol
 _atom_site_label
 _atom_site_symmetry_multiplicity
 _atom_site_fract_x
 _atom_site_fract_y
 _atom_site_fract_z
 _atom_site_fract_occupancy
 Na  Na1  1  0.80556  0.38888  0.05556  1
 Na  Na2  1  0.43004  0.13992  0.18004  1
 Na  Na3  1  0.56996  0.86008  0.81996  1
 Na  Na4  1  0.19444  0.61112  0.94444  1
 O  O1  1  0.94067  0.62687  0.23123  1
 O  O2  1  0.83097  0.87613  0.54218  1
 O  O3  1  0.29291  0.87613  0.08168  1
 O  O4  1  0.56754  0.37313  0.35810  1
 O  O5  1  0.43246  0.62687  0.64190  1
 O  O6  1  0.70709  0.12387  0.91832  1
 O  O7  1  0.16903  0.12387  0.45782  1
 O  O8  1  0.05933  0.37313  0.76877  1
 Tm  Tm1  1  0.94336  0.11328  0.69336  1
 Tm  Tm2  1  0.68276  0.63447  0.43276  1
 Tm  Tm3  1  0.31724  0.36553  0.56724  1
 Tm  Tm4  1  0.05664  0.88672  0.30664  1
