CIF file written using JARVIS-Tools package.
data_NdB2HF10
_symmetry_space_group_name_H-M  'P2_1/m'
_cell_length_a       7.12624
_cell_length_b       5.89233
_cell_length_c       8.77731
_cell_angle_alpha    90
_cell_angle_beta     112.841
_cell_angle_gamma    90

_symmetry_Int_Tables_number  11
_chemical_formula_structural  NdB2HF10
_chemical_formula_sum  Nd2B4H2F20
_cell_volume  339.6587742611129
_cell_formula_units_Z  2
loop_
  _symmetry_equiv_pos_site_id
 _symmetry_equiv_pos_as_xyz
 1  'x, y, z'
loop_
 _atom_site_type_symbol
 _atom_site_label
 _atom_site_symmetry_multiplicity
 _atom_site_fract_x
 _atom_site_fract_y
 _atom_site_fract_z
 _atom_site_fract_occupancy
 B  B1  1  0.74103  0.25000  0.04942  1
 B  B2  1  0.41902  0.25000  0.30900  1
 B  B3  1  0.58098  0.75000  0.69100  1
 B  B4  1  0.25897  0.75000  0.95058  1
 F  F1  1  0.26358  0.55473  0.85844  1
 F  F2  1  0.92214  0.25000  0.02025  1
 F  F3  1  0.42787  0.75000  0.10295  1
 F  F4  1  0.33022  0.25000  0.13959  1
 F  F5  1  0.73642  0.44527  0.14156  1
 F  F6  1  0.73642  0.05473  0.14156  1
 F  F7  1  0.57213  0.25000  0.89705  1
 F  F8  1  0.27269  0.25000  0.38260  1
 F  F9  1  0.54678  0.44585  0.36782  1
 F  F10  1  0.05840  0.75000  0.25304  1
 F  F11  1  -0.00000  0.00000  0.50000  1
 F  F12  1  0.07786  0.75000  0.97975  1
 F  F13  1  -0.00000  0.50000  0.50000  1
 F  F14  1  0.54678  0.05415  0.36782  1
 F  F15  1  0.26358  0.94527  0.85844  1
 F  F16  1  0.66978  0.75000  0.86041  1
 F  F17  1  0.72731  0.75000  0.61740  1
 F  F18  1  0.45322  0.55415  0.63218  1
 F  F19  1  0.45322  0.94585  0.63218  1
 F  F20  1  0.94160  0.25000  0.74696  1
 H  H1  1  0.93772  0.25000  0.85780  1
 H  H2  1  0.06228  0.75000  0.14220  1
 Nd  Nd1  1  0.23334  0.25000  0.65737  1
 Nd  Nd2  1  0.76666  0.75000  0.34263  1
