CIF file written using JARVIS-Tools package.
data_Ca3Al2Ge2
_symmetry_space_group_name_H-M  'Immm'
_cell_length_a       4.11179
_cell_length_b       4.54279
_cell_length_c       9.77791
_cell_angle_alpha    103.43
_cell_angle_beta     102.138
_cell_angle_gamma    89.9999

_symmetry_Int_Tables_number  71
_chemical_formula_structural  Ca3Al2Ge2
_chemical_formula_sum  Ca3Al2Ge2
_cell_volume  173.44680737909175
_cell_formula_units_Z  1
loop_
  _symmetry_equiv_pos_site_id
 _symmetry_equiv_pos_as_xyz
 1  'x, y, z'
loop_
 _atom_site_type_symbol
 _atom_site_label
 _atom_site_symmetry_multiplicity
 _atom_site_fract_x
 _atom_site_fract_y
 _atom_site_fract_z
 _atom_site_fract_occupancy
 Al  Al1  1  0.93177  0.43172  0.86354  1
 Al  Al2  1  0.06823  0.56828  0.13646  1
 Ca  Ca1  1  0.50000  -0.00000  0.00000  1
 Ca  Ca2  1  0.18611  0.18613  0.37223  1
 Ca  Ca3  1  0.81389  0.81387  0.62777  1
 Ge  Ge1  1  0.35303  0.35299  0.70607  1
 Ge  Ge2  1  0.64697  0.64701  0.29393  1
