CIF file written using JARVIS-Tools package.
data_Ca2B5Os3
_symmetry_space_group_name_H-M  'C2'
_cell_length_a       4.0793
_cell_length_b       5.62885
_cell_length_c       6.96731
_cell_angle_alpha    78.7722
_cell_angle_beta     72.9773
_cell_angle_gamma    68.7553

_symmetry_Int_Tables_number  5
_chemical_formula_structural  Ca2B5Os3
_chemical_formula_sum  Ca2B5Os3
_cell_volume  141.8700242286374
_cell_formula_units_Z  1
loop_
  _symmetry_equiv_pos_site_id
 _symmetry_equiv_pos_as_xyz
 1  'x, y, z'
loop_
 _atom_site_type_symbol
 _atom_site_label
 _atom_site_symmetry_multiplicity
 _atom_site_fract_x
 _atom_site_fract_y
 _atom_site_fract_z
 _atom_site_fract_occupancy
 B  B1  1  0.73531  0.50000  0.50000  1
 B  B2  1  0.47553  0.93769  0.11967  1
 B  B3  1  0.53289  0.06232  0.88033  1
 B  B4  1  0.37406  0.01741  0.68968  1
 B  B5  1  0.08114  0.98259  0.31032  1
 Ca  Ca1  1  0.07354  0.55806  0.76074  1
 Ca  Ca2  1  0.39236  0.44194  0.23927  1
 Os  Os1  1  0.01021  0.00000  -0.00000  1
 Os  Os2  1  0.87870  0.13606  0.59789  1
 Os  Os3  1  0.61265  0.86394  0.40211  1
