CIF file written using JARVIS-Tools package.
data_SmAl
_symmetry_space_group_name_H-M  'Pbcm'
_cell_length_a       5.68984
_cell_length_b       5.92019
_cell_length_c       11.6626
_cell_angle_alpha    90
_cell_angle_beta     90
_cell_angle_gamma    90

_symmetry_Int_Tables_number  57
_chemical_formula_structural  SmAl
_chemical_formula_sum  Sm8Al8
_cell_volume  392.853319180631
_cell_formula_units_Z  8
loop_
  _symmetry_equiv_pos_site_id
 _symmetry_equiv_pos_as_xyz
 1  'x, y, z'
loop_
 _atom_site_type_symbol
 _atom_site_label
 _atom_site_symmetry_multiplicity
 _atom_site_fract_x
 _atom_site_fract_y
 _atom_site_fract_z
 _atom_site_fract_occupancy
 Al  Al1  1  0.00000  0.92944  0.25000  1
 Al  Al2  1  0.00000  0.07056  0.75000  1
 Al  Al3  1  0.25000  0.66384  0.09958  1
 Al  Al4  1  0.25000  0.33616  0.59958  1
 Al  Al5  1  0.50000  0.92944  0.25000  1
 Al  Al6  1  0.50000  0.07056  0.75000  1
 Al  Al7  1  0.75000  0.66384  0.40042  1
 Al  Al8  1  0.75000  0.33616  0.90042  1
 Sm  Sm1  1  0.25000  0.16263  0.01217  1
 Sm  Sm2  1  0.25000  0.40272  0.33249  1
 Sm  Sm3  1  0.25000  0.83737  0.51217  1
 Sm  Sm4  1  0.25000  0.59728  0.83249  1
 Sm  Sm5  1  0.75000  0.40272  0.16751  1
 Sm  Sm6  1  0.75000  0.16263  0.48783  1
 Sm  Sm7  1  0.75000  0.59728  0.66751  1
 Sm  Sm8  1  0.75000  0.83737  0.98783  1
