CIF file written using JARVIS-Tools package.
data_K2BaCdSb2
_symmetry_space_group_name_H-M  'Pmc2_1'
_cell_length_a       5.06452
_cell_length_b       8.56278
_cell_length_c       9.89847
_cell_angle_alpha    90
_cell_angle_beta     90
_cell_angle_gamma    90

_symmetry_Int_Tables_number  26
_chemical_formula_structural  K2BaCdSb2
_chemical_formula_sum  K4Ba2Cd2Sb4
_cell_volume  429.2608223219428
_cell_formula_units_Z  2
loop_
  _symmetry_equiv_pos_site_id
 _symmetry_equiv_pos_as_xyz
 1  'x, y, z'
loop_
 _atom_site_type_symbol
 _atom_site_label
 _atom_site_symmetry_multiplicity
 _atom_site_fract_x
 _atom_site_fract_y
 _atom_site_fract_z
 _atom_site_fract_occupancy
 Ba  Ba1  1  0.00000  0.00394  0.05056  1
 Ba  Ba2  1  0.00000  0.50394  0.94944  1
 Cd  Cd1  1  0.50000  0.84706  0.82051  1
 Cd  Cd2  1  0.50000  0.34706  0.17949  1
 K  K1  1  0.50000  0.97676  0.42367  1
 K  K2  1  0.00000  0.65228  0.33796  1
 K  K3  1  0.50000  0.47676  0.57633  1
 K  K4  1  0.00000  0.15228  0.66204  1
 Sb  Sb1  1  0.00000  0.75862  0.67594  1
 Sb  Sb2  1  0.50000  0.71574  0.11495  1
 Sb  Sb3  1  0.00000  0.25862  0.32406  1
 Sb  Sb4  1  0.50000  0.21574  0.88505  1
