CIF file written using JARVIS-Tools package.
data_Ba3CrO5
_symmetry_space_group_name_H-M  'I4/mcm'
_cell_length_a       7.3329
_cell_length_b       7.8493
_cell_length_c       7.3329
_cell_angle_alpha    117.847
_cell_angle_beta     90
_cell_angle_gamma    117.847

_symmetry_Int_Tables_number  140
_chemical_formula_structural  Ba3CrO5
_chemical_formula_sum  Ba6Cr2O0
_cell_volume  316.86764716310074
_cell_formula_units_Z  2
loop_
  _symmetry_equiv_pos_site_id
 _symmetry_equiv_pos_as_xyz
 1  'x, y, z'
loop_
 _atom_site_type_symbol
 _atom_site_label
 _atom_site_symmetry_multiplicity
 _atom_site_fract_x
 _atom_site_fract_y
 _atom_site_fract_z
 _atom_site_fract_occupancy
 Ba  Ba1  1  0.75000  0.50000  0.75000  1
 Ba  Ba2  1  0.25000  0.50000  0.25000  1
 Ba  Ba3  1  0.32185  1.00000  0.17815  1
 Ba  Ba4  1  0.67815  1.00000  0.82185  1
 Ba  Ba5  1  0.17815  0.00000  0.67815  1
 Ba  Ba6  1  0.82185  0.00000  0.32185  1
 Cr  Cr1  1  0.25000  0.50000  0.75000  1
 Cr  Cr2  1  0.75000  0.50000  0.25000  1
 O  O1  1  0.29312  0.31464  0.52152  1
 O  O2  1  0.50000  -0.00000  0.50000  1
 O  O3  1  0.52152  0.31464  0.02152  1
 O  O4  1  0.00000  0.00000  0.00000  1
 O  O5  1  0.02152  0.31464  0.79312  1
 O  O6  1  0.97848  0.68536  0.20688  1
 O  O7  1  0.70688  0.68536  0.47848  1
 O  O8  1  0.20688  0.68536  0.70688  1
 O  O9  1  0.47848  0.68536  0.97848  1
 O  O10  1  0.79312  0.31464  0.29312  1
