CIF file written using JARVIS-Tools package.
data_Ba3Al2Ge2
_symmetry_space_group_name_H-M  'Immm'
_cell_length_a       4.35719
_cell_length_b       5.13322
_cell_length_c       10.5935
_cell_angle_alpha    104.023
_cell_angle_beta     101.868
_cell_angle_gamma    90

_symmetry_Int_Tables_number  71
_chemical_formula_structural  Ba3Al2Ge2
_chemical_formula_sum  Ba3Al2Ge2
_cell_volume  224.65257032745532
_cell_formula_units_Z  1
loop_
  _symmetry_equiv_pos_site_id
 _symmetry_equiv_pos_as_xyz
 1  'x, y, z'
loop_
 _atom_site_type_symbol
 _atom_site_label
 _atom_site_symmetry_multiplicity
 _atom_site_fract_x
 _atom_site_fract_y
 _atom_site_fract_z
 _atom_site_fract_occupancy
 Al  Al1  1  0.93495  0.43495  0.86990  1
 Al  Al2  1  0.06505  0.56505  0.13010  1
 Ba  Ba1  1  0.81492  0.81493  0.62984  1
 Ba  Ba2  1  0.50000  -0.00000  -0.00000  1
 Ba  Ba3  1  0.18508  0.18507  0.37016  1
 Ge  Ge1  1  0.36393  0.36394  0.72785  1
 Ge  Ge2  1  0.63607  0.63606  0.27215  1
