CIF file written using JARVIS-Tools package.
data_AgPbO2
_symmetry_space_group_name_H-M  'P2/m'
_cell_length_a       6.4411
_cell_length_b       3.54212
_cell_length_c       6.8007
_cell_angle_alpha    90
_cell_angle_beta     110.85
_cell_angle_gamma    90

_symmetry_Int_Tables_number  10
_chemical_formula_structural  AgPbO2
_chemical_formula_sum  Ag2Pb2O4
_cell_volume  144.9989425081806
_cell_formula_units_Z  2
loop_
  _symmetry_equiv_pos_site_id
 _symmetry_equiv_pos_as_xyz
 1  'x, y, z'
loop_
 _atom_site_type_symbol
 _atom_site_label
 _atom_site_symmetry_multiplicity
 _atom_site_fract_x
 _atom_site_fract_y
 _atom_site_fract_z
 _atom_site_fract_occupancy
 Ag  Ag1  1  -0.00000  0.50000  0.50000  1
 Ag  Ag2  1  0.50000  0.00000  0.50000  1
 O  O1  1  0.42062  0.00000  0.17806  1
 O  O2  1  0.57938  0.00000  0.82194  1
 O  O3  1  0.85741  0.50000  0.17776  1
 O  O4  1  0.14259  0.50000  0.82224  1
 Pb  Pb1  1  0.50000  0.50000  0.00000  1
 Pb  Pb2  1  0.00000  0.00000  0.00000  1
