CIF file written using JARVIS-Tools package.
data_MgCoO2
_symmetry_space_group_name_H-M  'C2/m'
_cell_length_a       2.90709
_cell_length_b       7.63228
_cell_length_c       8.15289
_cell_angle_alpha    83.051
_cell_angle_beta     90.0001
_cell_angle_gamma    79.007

_symmetry_Int_Tables_number  12
_chemical_formula_structural  MgCoO2
_chemical_formula_sum  Mg4Co4O8
_cell_volume  176.22125864588946
_cell_formula_units_Z  4
loop_
  _symmetry_equiv_pos_site_id
 _symmetry_equiv_pos_as_xyz
 1  'x, y, z'
loop_
 _atom_site_type_symbol
 _atom_site_label
 _atom_site_symmetry_multiplicity
 _atom_site_fract_x
 _atom_site_fract_y
 _atom_site_fract_z
 _atom_site_fract_occupancy
 Co  Co1  1  0.77179  0.42629  0.71573  1
 Co  Co2  1  0.12727  0.71484  0.65218  1
 Co  Co3  1  0.85660  0.25696  0.36790  1
 Co  Co4  1  0.21209  0.54551  0.30435  1
 Mg  Mg1  1  0.64345  0.68258  0.97632  1
 Mg  Mg2  1  0.34044  0.28922  0.04376  1
 Mg  Mg3  1  0.55003  0.86919  0.26298  1
 Mg  Mg4  1  0.43385  0.10261  0.75711  1
 O  O1  1  0.76427  0.44131  0.16511  1
 O  O2  1  0.87220  0.22564  0.59387  1
 O  O3  1  0.11169  0.74616  0.42621  1
 O  O4  1  0.21961  0.53049  0.85497  1
 O  O5  1  0.88744  0.19531  0.90615  1
 O  O6  1  0.56298  0.84330  0.75536  1
 O  O7  1  0.09645  0.77648  0.11393  1
 O  O8  1  0.42089  0.12850  0.26473  1
