CIF file written using JARVIS-Tools package.
data_TeW2Se2S
_symmetry_space_group_name_H-M  'P3m1'
_cell_length_a       3.34724
_cell_length_b       3.34725
_cell_length_c       35.0122
_cell_angle_alpha    90.0008
_cell_angle_beta     90
_cell_angle_gamma    120

_symmetry_Int_Tables_number  156
_chemical_formula_structural  TeW2Se2S
_chemical_formula_sum  Te2W4Se4S2
_cell_volume  339.7240538268101
_cell_formula_units_Z  2
loop_
  _symmetry_equiv_pos_site_id
 _symmetry_equiv_pos_as_xyz
 1  'x, y, z'
loop_
 _atom_site_type_symbol
 _atom_site_label
 _atom_site_symmetry_multiplicity
 _atom_site_fract_x
 _atom_site_fract_y
 _atom_site_fract_z
 _atom_site_fract_occupancy
 S  S1  1  0.66666  0.33332  0.42250  1
 S  S2  1  0.66665  0.33330  0.50960  1
 Se  Se1  1  0.33332  0.66662  0.33139  1
 Se  Se2  1  0.66660  0.33320  0.04727  1
 Se  Se3  1  0.66670  0.33340  0.14291  1
 Se  Se4  1  0.33337  0.66676  0.23571  1
 Te  Te1  1  0.33336  0.66671  0.71280  1
 Te  Te2  1  0.33334  0.66668  0.60362  1
 W  W1  1  0.33332  0.66663  0.09507  1
 W  W2  1  0.33332  0.66664  0.46605  1
 W  W3  1  0.66668  0.33336  0.28355  1
 W  W4  1  0.66668  0.33336  0.65827  1
