CIF file written using JARVIS-Tools package.
data_V2ZnO6
_symmetry_space_group_name_H-M  'P1'
_cell_length_a       4.96075
_cell_length_b       5.39575
_cell_length_c       7.70001
_cell_angle_alpha    90.3286
_cell_angle_beta     90.3639
_cell_angle_gamma    84.7646

_symmetry_Int_Tables_number  1
_chemical_formula_structural  V2ZnO6
_chemical_formula_sum  V4Zn2O2
_cell_volume  205.23929821161212
_cell_formula_units_Z  2
loop_
  _symmetry_equiv_pos_site_id
 _symmetry_equiv_pos_as_xyz
 1  'x, y, z'
loop_
 _atom_site_type_symbol
 _atom_site_label
 _atom_site_symmetry_multiplicity
 _atom_site_fract_x
 _atom_site_fract_y
 _atom_site_fract_z
 _atom_site_fract_occupancy
 O  O1  1  0.72135  0.72470  0.93019  1
 O  O2  1  0.71748  0.71846  0.55238  1
 O  O3  1  0.22313  0.75263  0.42909  1
 O  O4  1  0.37212  0.00078  0.74558  1
 O  O5  1  0.21728  0.21811  0.05241  1
 O  O6  1  0.72290  0.25297  0.92912  1
 O  O7  1  0.72022  0.23714  0.56932  1
 O  O8  1  0.22051  0.73670  0.06930  1
 O  O9  1  0.87207  0.50081  0.24557  1
 O  O10  1  0.16491  0.50403  0.71719  1
 O  O11  1  0.66496  0.00414  0.21719  1
 O  O12  1  0.22109  0.22444  0.43021  1
 V  V1  1  0.49520  0.01965  0.54561  1
 V  V2  1  0.03749  0.52868  0.50934  1
 V  V3  1  0.99518  0.51948  0.04560  1
 V  V4  1  0.53755  0.02879  0.00934  1
 Zn  Zn1  1  0.05944  0.01396  0.25132  1
 Zn  Zn2  1  0.55930  0.51445  0.75135  1
