CIF file written using JARVIS-Tools package.
data_Na5Zr2F13
_symmetry_space_group_name_H-M  'C2/m'
_cell_length_a       5.64985
_cell_length_b       6.53911
_cell_length_c       9.12427
_cell_angle_alpha    92.8257
_cell_angle_beta     90
_cell_angle_gamma    115.595

_symmetry_Int_Tables_number  12
_chemical_formula_structural  Na5Zr2F13
_chemical_formula_sum  Na5Zr2F3
_cell_volume  303.56281282788643
_cell_formula_units_Z  1
loop_
  _symmetry_equiv_pos_site_id
 _symmetry_equiv_pos_as_xyz
 1  'x, y, z'
loop_
 _atom_site_type_symbol
 _atom_site_label
 _atom_site_symmetry_multiplicity
 _atom_site_fract_x
 _atom_site_fract_y
 _atom_site_fract_z
 _atom_site_fract_occupancy
 F  F1  1  0.63851  0.70521  0.60641  1
 F  F2  1  0.72418  0.88911  0.26918  1
 F  F3  1  0.00000  0.00000  0.00000  1
 F  F4  1  0.94269  0.34950  0.11075  1
 F  F5  1  0.59319  0.65050  0.88925  1
 F  F6  1  0.05731  0.65050  0.88925  1
 F  F7  1  0.40681  0.34950  0.11075  1
 F  F8  1  0.93329  0.29479  0.39359  1
 F  F9  1  0.36149  0.29479  0.39359  1
 F  F10  1  0.06671  0.70521  0.60641  1
 F  F11  1  0.16493  0.88911  0.26918  1
 F  F12  1  0.83507  0.11089  0.73082  1
 F  F13  1  0.27582  0.11089  0.73082  1
 Na  Na1  1  0.19078  0.38155  0.88811  1
 Na  Na2  1  0.33740  0.67480  0.42166  1
 Na  Na3  1  0.00000  0.00000  0.50000  1
 Na  Na4  1  0.66260  0.32520  0.57834  1
 Na  Na5  1  0.80922  0.61845  0.11189  1
 Zr  Zr1  1  0.91838  0.83676  0.78051  1
 Zr  Zr2  1  0.08162  0.16324  0.21949  1
