CIF file written using JARVIS-Tools package.
data_V2P4S13
_symmetry_space_group_name_H-M  'P-1'
_cell_length_a       9.10144
_cell_length_b       9.73692
_cell_length_c       11.5982
_cell_angle_alpha    72.5422
_cell_angle_beta     68.5632
_cell_angle_gamma    70.3467

_symmetry_Int_Tables_number  2
_chemical_formula_structural  V2P4S13
_chemical_formula_sum  V4P8S26
_cell_volume  882.4151178216849
_cell_formula_units_Z  2
loop_
  _symmetry_equiv_pos_site_id
 _symmetry_equiv_pos_as_xyz
 1  'x, y, z'
loop_
 _atom_site_type_symbol
 _atom_site_label
 _atom_site_symmetry_multiplicity
 _atom_site_fract_x
 _atom_site_fract_y
 _atom_site_fract_z
 _atom_site_fract_occupancy
 P  P1  1  0.24125  0.57054  0.27818  1
 P  P2  1  0.49579  0.74192  0.61093  1
 P  P3  1  0.87267  0.76795  0.97858  1
 P  P4  1  0.12733  0.23205  0.02142  1
 P  P5  1  0.77746  0.06417  0.75282  1
 P  P6  1  0.75875  0.42946  0.72182  1
 P  P7  1  0.50421  0.25808  0.38907  1
 P  P8  1  0.22254  0.93583  0.24718  1
 S  S1  1  0.08503  0.44099  0.33423  1
 S  S2  1  0.34346  0.15421  0.54076  1
 S  S3  1  0.47232  0.82096  0.76143  1
 S  S4  1  0.86635  0.91085  0.64387  1
 S  S5  1  0.56714  0.50474  0.63265  1
 S  S6  1  0.28949  0.79766  0.56037  1
 S  S7  1  0.69548  0.70610  0.95424  1
 S  S8  1  0.91132  0.36660  0.11446  1
 S  S9  1  0.46596  0.86718  0.21488  1
 S  S10  1  0.90205  0.23491  0.64408  1
 S  S11  1  0.85663  0.00107  0.91945  1
 S  S12  1  0.14337  0.99893  0.08055  1
 S  S13  1  0.52768  0.17904  0.23857  1
 S  S14  1  0.09795  0.76509  0.35592  1
 S  S15  1  0.13365  0.08915  0.35613  1
 S  S16  1  0.65654  0.84579  0.45924  1
 S  S17  1  0.67638  0.38720  0.91141  1
 S  S18  1  0.71051  0.20234  0.43963  1
 S  S19  1  0.43286  0.49526  0.36735  1
 S  S20  1  0.12332  0.27270  0.84088  1
 S  S21  1  0.91497  0.55901  0.66577  1
 S  S22  1  0.32362  0.61280  0.08859  1
 S  S23  1  0.87668  0.72730  0.15912  1
 S  S24  1  0.30452  0.29390  0.04576  1
 S  S25  1  0.08868  0.63340  0.88554  1
 S  S26  1  0.53404  0.13282  0.78512  1
 V  V1  1  0.89799  0.49082  0.89096  1
 V  V2  1  0.40081  0.98795  0.39120  1
 V  V3  1  0.10201  0.50918  0.10904  1
 V  V4  1  0.59919  0.01205  0.60880  1
