CIF file written using JARVIS-Tools package.
data_Na3AlF6
_symmetry_space_group_name_H-M  'R-3'
_cell_length_a       5.58362
_cell_length_b       5.58362
_cell_length_c       5.53638
_cell_angle_alpha    59.7173
_cell_angle_beta     59.7174
_cell_angle_gamma    60

_symmetry_Int_Tables_number  148
_chemical_formula_structural  Na3AlF6
_chemical_formula_sum  Na3AlF6
_cell_volume  121.52726954589575
_cell_formula_units_Z  1
loop_
  _symmetry_equiv_pos_site_id
 _symmetry_equiv_pos_as_xyz
 1  'x, y, z'
loop_
 _atom_site_type_symbol
 _atom_site_label
 _atom_site_symmetry_multiplicity
 _atom_site_fract_x
 _atom_site_fract_y
 _atom_site_fract_z
 _atom_site_fract_occupancy
 Al  Al1  1  0.50000  0.50000  0.50000  1
 F  F1  1  0.29309  0.62183  0.26341  1
 F  F2  1  0.37817  0.17832  0.73659  1
 F  F3  1  0.17832  0.70691  0.73659  1
 F  F4  1  0.82168  0.29309  0.26341  1
 F  F5  1  0.62183  0.82168  0.26341  1
 F  F6  1  0.70691  0.37817  0.73659  1
 Na  Na1  1  0.00000  0.00000  0.00000  1
 Na  Na2  1  0.26810  0.26810  0.19570  1
 Na  Na3  1  0.73190  0.73190  0.80430  1
