CIF file written using JARVIS-Tools package.
data_AlH3O3
_symmetry_space_group_name_H-M  'P2_1/c'
_cell_length_a       5.0883
_cell_length_b       8.70665
_cell_length_c       4.78911
_cell_angle_alpha    90
_cell_angle_beta     75.568
_cell_angle_gamma    90

_symmetry_Int_Tables_number  14
_chemical_formula_structural  AlH3O3
_chemical_formula_sum  Al4H2O2
_cell_volume  205.4725305223459
_cell_formula_units_Z  4
loop_
  _symmetry_equiv_pos_site_id
 _symmetry_equiv_pos_as_xyz
 1  'x, y, z'
loop_
 _atom_site_type_symbol
 _atom_site_label
 _atom_site_symmetry_multiplicity
 _atom_site_fract_x
 _atom_site_fract_y
 _atom_site_fract_z
 _atom_site_fract_occupancy
 Al  Al1  1  0.04545  0.33399  0.97098  1
 Al  Al2  1  0.45455  0.83399  0.02902  1
 Al  Al3  1  0.54545  0.16601  0.97098  1
 Al  Al4  1  0.95455  0.66601  0.02902  1
 H  H1  1  0.27164  0.31894  0.38880  1
 H  H2  1  0.22836  0.81894  0.61120  1
 H  H3  1  0.22692  0.61657  0.39467  1
 H  H4  1  0.27308  0.11657  0.60533  1
 H  H5  1  0.37523  0.54150  0.78592  1
 H  H6  1  0.12477  0.04150  0.21408  1
 H  H7  1  0.72836  0.68106  0.61120  1
 H  H8  1  0.62477  0.45850  0.21408  1
 H  H9  1  0.72692  0.88343  0.39467  1
 H  H10  1  0.87523  0.95850  0.78592  1
 H  H11  1  0.77164  0.18106  0.38880  1
 H  H12  1  0.77308  0.38343  0.60533  1
 O  O1  1  0.82295  0.16935  0.17825  1
 O  O2  1  0.18802  0.51846  0.77378  1
 O  O3  1  0.17705  0.83065  0.82175  1
 O  O4  1  0.19799  0.69742  0.26178  1
 O  O5  1  0.30201  0.19742  0.73822  1
 O  O6  1  0.67705  0.66935  0.82175  1
 O  O7  1  0.68802  0.98154  0.77378  1
 O  O8  1  0.80201  0.30258  0.73822  1
 O  O9  1  0.69799  0.80258  0.26178  1
 O  O10  1  0.32295  0.33065  0.17825  1
 O  O11  1  0.31198  0.01846  0.22622  1
 O  O12  1  0.81198  0.48154  0.22622  1
