CIF file written using JARVIS-Tools package.
data_Fe3O4
_symmetry_space_group_name_H-M  'Cmcm'
_cell_length_a       2.828
_cell_length_b       4.91556
_cell_length_c       9.60598
_cell_angle_alpha    90
_cell_angle_beta     90
_cell_angle_gamma    106.718

_symmetry_Int_Tables_number  63
_chemical_formula_structural  Fe3O4
_chemical_formula_sum  Fe6O8
_cell_volume  127.89076705277057
_cell_formula_units_Z  2
loop_
  _symmetry_equiv_pos_site_id
 _symmetry_equiv_pos_as_xyz
 1  'x, y, z'
loop_
 _atom_site_type_symbol
 _atom_site_label
 _atom_site_symmetry_multiplicity
 _atom_site_fract_x
 _atom_site_fract_y
 _atom_site_fract_z
 _atom_site_fract_occupancy
 Fe  Fe1  1  0.13060  0.26120  0.57227  1
 Fe  Fe2  1  0.86940  0.73879  0.42773  1
 Fe  Fe3  1  0.86940  0.73879  0.07227  1
 Fe  Fe4  1  0.13060  0.26120  0.92773  1
 Fe  Fe5  1  0.62446  0.24892  0.25000  1
 Fe  Fe6  1  0.37554  0.75108  0.75000  1
 O  O1  1  0.50000  0.00000  0.50000  1
 O  O2  1  0.50000  0.00000  0.00000  1
 O  O3  1  0.21989  0.43978  0.11248  1
 O  O4  1  0.78011  0.56022  0.88752  1
 O  O5  1  0.78011  0.56022  0.61248  1
 O  O6  1  0.21989  0.43978  0.38752  1
 O  O7  1  0.03771  0.07542  0.75000  1
 O  O8  1  0.96229  0.92458  0.25000  1
