CIF file written using JARVIS-Tools package.
data_LiMn2B2O6
_symmetry_space_group_name_H-M  'P-1'
_cell_length_a       5.26601
_cell_length_b       5.9228
_cell_length_c       7.68274
_cell_angle_alpha    81.4164
_cell_angle_beta     88.0813
_cell_angle_gamma    88.2216

_symmetry_Int_Tables_number  2
_chemical_formula_structural  LiMn2B2O6
_chemical_formula_sum  Li2Mn4B4O2
_cell_volume  236.72230855041445
_cell_formula_units_Z  2
loop_
  _symmetry_equiv_pos_site_id
 _symmetry_equiv_pos_as_xyz
 1  'x, y, z'
loop_
 _atom_site_type_symbol
 _atom_site_label
 _atom_site_symmetry_multiplicity
 _atom_site_fract_x
 _atom_site_fract_y
 _atom_site_fract_z
 _atom_site_fract_occupancy
 B  B1  1  0.41823  0.75230  0.49502  1
 B  B2  1  0.92413  0.27004  0.99133  1
 B  B3  1  0.07587  0.72996  0.00867  1
 B  B4  1  0.58177  0.24770  0.50498  1
 Li  Li1  1  0.90174  0.63173  0.69765  1
 Li  Li2  1  0.09826  0.36827  0.30235  1
 Mn  Mn1  1  0.41379  0.42653  0.82353  1
 Mn  Mn2  1  0.09556  0.06285  0.68252  1
 Mn  Mn3  1  0.90444  0.93715  0.31748  1
 Mn  Mn4  1  0.58621  0.57347  0.17647  1
 O  O1  1  0.05676  0.16359  0.12944  1
 O  O2  1  0.94324  0.83641  0.87056  1
 O  O3  1  0.04047  0.32962  0.82297  1
 O  O4  1  0.15987  0.80894  0.52170  1
 O  O5  1  0.32310  0.64932  0.98875  1
 O  O6  1  0.95953  0.67038  0.17703  1
 O  O7  1  0.46439  0.18504  0.67078  1
 O  O8  1  0.43816  0.35154  0.36979  1
 O  O9  1  0.84013  0.19106  0.47830  1
 O  O10  1  0.56184  0.64846  0.63021  1
 O  O11  1  0.53561  0.81496  0.32922  1
 O  O12  1  0.67690  0.35068  0.01125  1
