CIF file written using JARVIS-Tools package.
data_Li2Mn3CuO8
_symmetry_space_group_name_H-M  'R3m'
_cell_length_a       5.82057
_cell_length_b       5.82057
_cell_length_c       5.82057
_cell_angle_alpha    59.1649
_cell_angle_beta     59.1649
_cell_angle_gamma    59.1649

_symmetry_Int_Tables_number  160
_chemical_formula_structural  Li2Mn3CuO8
_chemical_formula_sum  Li2Mn3CuO8
_cell_volume  136.78432176745784
_cell_formula_units_Z  1
loop_
  _symmetry_equiv_pos_site_id
 _symmetry_equiv_pos_as_xyz
 1  'x, y, z'
loop_
 _atom_site_type_symbol
 _atom_site_label
 _atom_site_symmetry_multiplicity
 _atom_site_fract_x
 _atom_site_fract_y
 _atom_site_fract_z
 _atom_site_fract_occupancy
 Cu  Cu1  1  0.88263  0.88263  0.88263  1
 Li  Li1  1  0.11962  0.11962  0.11962  1
 Li  Li2  1  0.49791  0.49791  0.49791  1
 Mn  Mn1  1  0.00395  0.49967  0.49967  1
 Mn  Mn2  1  0.49967  0.00395  0.49967  1
 Mn  Mn3  1  0.49967  0.49967  0.00395  1
 O  O1  1  0.26188  0.26188  0.26188  1
 O  O2  1  0.25040  0.25040  0.71058  1
 O  O3  1  0.25040  0.71058  0.25040  1
 O  O4  1  0.71058  0.25040  0.25040  1
 O  O5  1  0.29163  0.74597  0.74597  1
 O  O6  1  0.74597  0.29163  0.74597  1
 O  O7  1  0.74597  0.74597  0.29163  1
 O  O8  1  0.73972  0.73972  0.73972  1
