CIF file written using JARVIS-Tools package.
data_LiV2OF5
_symmetry_space_group_name_H-M  'P3_2'
_cell_length_a       5.0753
_cell_length_b       5.0753
_cell_length_c       13.8051
_cell_angle_alpha    90
_cell_angle_beta     90
_cell_angle_gamma    120

_symmetry_Int_Tables_number  145
_chemical_formula_structural  LiV2OF5
_chemical_formula_sum  Li3V6O3F5
_cell_volume  307.9588293223342
_cell_formula_units_Z  3
loop_
  _symmetry_equiv_pos_site_id
 _symmetry_equiv_pos_as_xyz
 1  'x, y, z'
loop_
 _atom_site_type_symbol
 _atom_site_label
 _atom_site_symmetry_multiplicity
 _atom_site_fract_x
 _atom_site_fract_y
 _atom_site_fract_z
 _atom_site_fract_occupancy
 F  F1  1  0.02288  0.66452  0.07810  1
 F  F2  1  0.36979  0.73248  0.91010  1
 F  F3  1  0.26752  0.63730  0.57677  1
 F  F4  1  0.64165  0.97712  0.41143  1
 F  F5  1  0.33548  0.35835  0.74476  1
 F  F6  1  0.35159  0.33296  0.41426  1
 F  F7  1  0.61806  0.33630  0.90552  1
 F  F8  1  0.36270  0.63021  0.24343  1
 F  F9  1  0.66370  0.28177  0.57219  1
 F  F10  1  0.71823  0.38194  0.23885  1
 F  F11  1  0.66704  0.01864  0.08093  1
 F  F12  1  0.98136  0.64841  0.74760  1
 F  F13  1  0.95411  0.98088  0.24074  1
 F  F14  1  0.02678  0.04589  0.57407  1
 F  F15  1  0.01912  0.97322  0.90740  1
 Li  Li1  1  0.99235  0.32957  0.46293  1
 Li  Li2  1  0.33722  0.00765  0.79626  1
 Li  Li3  1  0.67043  0.66278  0.12960  1
 O  O1  1  0.28379  0.28259  0.08092  1
 O  O2  1  -0.00120  0.71621  0.41425  1
 O  O3  1  0.71741  0.00120  0.74759  1
 V  V1  1  0.69222  0.65995  0.33643  1
 V  V2  1  0.66369  0.69325  0.82567  1
 V  V3  1  0.34005  0.03227  0.00310  1
 V  V4  1  0.02956  0.33631  0.15900  1
 V  V5  1  0.96773  0.30778  0.66976  1
 V  V6  1  0.30675  0.97044  0.49234  1
