CIF file written using JARVIS-Tools package.
data_NaHO
_symmetry_space_group_name_H-M  'Pbcm'
_cell_length_a       3.14796
_cell_length_b       5.96796
_cell_length_c       6.18509
_cell_angle_alpha    89.9987
_cell_angle_beta     89.9973
_cell_angle_gamma    89.9959

_symmetry_Int_Tables_number  57
_chemical_formula_structural  NaHO
_chemical_formula_sum  Na4H4O4
_cell_volume  116.19880714075751
_cell_formula_units_Z  4
loop_
  _symmetry_equiv_pos_site_id
 _symmetry_equiv_pos_as_xyz
 1  'x, y, z'
loop_
 _atom_site_type_symbol
 _atom_site_label
 _atom_site_symmetry_multiplicity
 _atom_site_fract_x
 _atom_site_fract_y
 _atom_site_fract_z
 _atom_site_fract_occupancy
 H  H1  1  0.05105  0.48142  0.25123  1
 H  H2  1  0.94895  0.51858  0.75123  1
 H  H3  1  0.05104  0.01858  0.75122  1
 H  H4  1  0.94895  0.98142  0.25124  1
 Na  Na1  1  0.34138  0.74999  0.50123  1
 Na  Na2  1  0.65863  0.25000  0.00123  1
 Na  Na3  1  0.65862  0.25000  0.50123  1
 Na  Na4  1  0.34137  0.75000  0.00123  1
 O  O1  1  0.79117  0.57160  0.25123  1
 O  O2  1  0.20883  0.42840  0.75124  1
 O  O3  1  0.79118  0.92840  0.75123  1
 O  O4  1  0.20882  0.07160  0.25123  1
