CIF file written using JARVIS-Tools package.
data_Na2Cu3Ge4O12
_symmetry_space_group_name_H-M  'P-1'
_cell_length_a       5.55721
_cell_length_b       6.35552
_cell_length_c       7.68729
_cell_angle_alpha    87.1632
_cell_angle_beta     77.8523
_cell_angle_gamma    87.6133

_symmetry_Int_Tables_number  2
_chemical_formula_structural  Na2Cu3Ge4O12
_chemical_formula_sum  Na2Cu3Ge4O2
_cell_volume  264.96663210562303
_cell_formula_units_Z  1
loop_
  _symmetry_equiv_pos_site_id
 _symmetry_equiv_pos_as_xyz
 1  'x, y, z'
loop_
 _atom_site_type_symbol
 _atom_site_label
 _atom_site_symmetry_multiplicity
 _atom_site_fract_x
 _atom_site_fract_y
 _atom_site_fract_z
 _atom_site_fract_occupancy
 Cu  Cu1  1  0.50862  0.16275  0.81991  1
 Cu  Cu2  1  0.49138  0.83725  0.18009  1
 Cu  Cu3  1  0.00000  0.00000  0.00000  1
 Ge  Ge1  1  0.24558  0.39767  0.17850  1
 Ge  Ge2  1  0.75442  0.60233  0.82150  1
 Ge  Ge3  1  0.69310  0.22167  0.37125  1
 Ge  Ge4  1  0.30690  0.77833  0.62875  1
 Na  Na1  1  0.09052  0.24775  0.59666  1
 Na  Na2  1  0.90948  0.75225  0.40334  1
 O  O1  1  0.70844  0.11731  0.58514  1
 O  O2  1  0.76239  0.00751  0.22490  1
 O  O3  1  0.28265  0.65472  0.08590  1
 O  O4  1  0.71735  0.34528  0.91410  1
 O  O5  1  0.29156  0.88269  0.41486  1
 O  O6  1  0.93555  0.40825  0.31531  1
 O  O7  1  0.41224  0.36231  0.35879  1
 O  O8  1  0.58776  0.63769  0.64121  1
 O  O9  1  0.26602  0.17276  0.04704  1
 O  O10  1  0.23761  0.99249  0.77510  1
 O  O11  1  0.73398  0.82724  0.95296  1
 O  O12  1  0.06445  0.59175  0.68469  1
