CIF file written using JARVIS-Tools package.
data_NdPb4F11
_symmetry_space_group_name_H-M  'R3m'
_cell_length_a       4.13776
_cell_length_b       4.14022
_cell_length_c       21.0926
_cell_angle_alpha    60.6083
_cell_angle_beta     60.6245
_cell_angle_gamma    59.9769

_symmetry_Int_Tables_number  160
_chemical_formula_structural  NdPb4F11
_chemical_formula_sum  NdPb4F
_cell_volume  257.81648928391036
_cell_formula_units_Z  1
loop_
  _symmetry_equiv_pos_site_id
 _symmetry_equiv_pos_as_xyz
 1  'x, y, z'
loop_
 _atom_site_type_symbol
 _atom_site_label
 _atom_site_symmetry_multiplicity
 _atom_site_fract_x
 _atom_site_fract_y
 _atom_site_fract_z
 _atom_site_fract_occupancy
 F  F1  1  0.19662  0.26438  0.05491  1
 F  F2  1  0.71212  0.77975  0.14568  1
 F  F3  1  0.20104  0.26828  0.45248  1
 F  F4  1  0.20123  0.26913  0.25209  1
 F  F5  1  0.70489  0.77195  0.35024  1
 F  F6  1  0.17622  0.24273  0.66766  1
 F  F7  1  0.69619  0.76254  0.55575  1
 F  F8  1  0.26681  0.33301  0.81345  1
 F  F9  1  0.71713  0.78334  0.74324  1
 F  F10  1  0.48494  0.55190  0.88225  1
 F  F11  1  0.70544  0.77275  0.94980  1
 Nd  Nd1  1  0.93912  0.00480  0.81028  1
 Pb  Pb1  1  0.95627  0.02401  -0.00087  1
 Pb  Pb2  1  0.95494  0.02267  0.19994  1
 Pb  Pb3  1  0.95224  0.01937  0.40180  1
 Pb  Pb4  1  0.94680  0.01337  0.60529  1
