CIF file written using JARVIS-Tools package.
data_Al2O3
_symmetry_space_group_name_H-M  'C2/m'
_cell_length_a       3.1206
_cell_length_b       5.77709
_cell_length_c       7.13571
_cell_angle_alpha    121.664
_cell_angle_beta     90.0005
_cell_angle_gamma    105.669

_symmetry_Int_Tables_number  12
_chemical_formula_structural  Al2O3
_chemical_formula_sum  Al4O6
_cell_volume  103.83373974718818
_cell_formula_units_Z  2
loop_
  _symmetry_equiv_pos_site_id
 _symmetry_equiv_pos_as_xyz
 1  'x, y, z'
loop_
 _atom_site_type_symbol
 _atom_site_label
 _atom_site_symmetry_multiplicity
 _atom_site_fract_x
 _atom_site_fract_y
 _atom_site_fract_z
 _atom_site_fract_occupancy
 Al  Al1  1  0.00299  0.02472  0.31368  1
 Al  Al2  1  0.68067  0.38011  0.15345  1
 Al  Al3  1  0.97827  0.97528  0.68632  1
 Al  Al4  1  0.30060  0.61989  0.84655  1
 O  O1  1  0.86264  0.74413  0.37338  1
 O  O2  1  0.40903  0.83681  0.72759  1
 O  O3  1  0.57223  0.16319  0.27241  1
 O  O4  1  0.13424  0.28726  0.00463  1
 O  O5  1  0.84702  0.71274  -0.00463  1
 O  O6  1  0.11860  0.25587  0.62662  1
