CIF file written using JARVIS-Tools package.
data_BiBr3
_symmetry_space_group_name_H-M  'P2_1/c'
_cell_length_a       7.16735
_cell_length_b       12.417
_cell_length_c       6.83857
_cell_angle_alpha    90
_cell_angle_beta     110.241
_cell_angle_gamma    90

_symmetry_Int_Tables_number  14
_chemical_formula_structural  BiBr3
_chemical_formula_sum  Bi4Br2
_cell_volume  571.0256551024847
_cell_formula_units_Z  4
loop_
  _symmetry_equiv_pos_site_id
 _symmetry_equiv_pos_as_xyz
 1  'x, y, z'
loop_
 _atom_site_type_symbol
 _atom_site_label
 _atom_site_symmetry_multiplicity
 _atom_site_fract_x
 _atom_site_fract_y
 _atom_site_fract_z
 _atom_site_fract_occupancy
 Bi  Bi1  1  0.50034  0.33365  0.00028  1
 Bi  Bi2  1  -0.00034  0.83365  -0.00028  1
 Bi  Bi3  1  0.00034  0.16635  0.00028  1
 Bi  Bi4  1  0.49966  0.66635  -0.00028  1
 Br  Br1  1  0.24759  0.16844  0.74295  1
 Br  Br2  1  0.25440  0.49982  0.73642  1
 Br  Br3  1  0.25341  0.33133  0.25791  1
 Br  Br4  1  0.24659  0.83133  0.74209  1
 Br  Br5  1  0.24560  -0.00018  0.26358  1
 Br  Br6  1  0.74759  0.33156  0.74295  1
 Br  Br7  1  0.25241  0.66844  0.25705  1
 Br  Br8  1  0.75440  0.00018  0.73642  1
 Br  Br9  1  0.75341  0.16867  0.25791  1
 Br  Br10  1  0.74659  0.66867  0.74209  1
 Br  Br11  1  0.74560  0.50018  0.26358  1
 Br  Br12  1  0.75241  0.83156  0.25705  1
