CIF file written using JARVIS-Tools package.
data_CuSb2H12O6F8
_symmetry_space_group_name_H-M  'P2_1/c'
_cell_length_a       4.86055
_cell_length_b       6.85217
_cell_length_c       18.1089
_cell_angle_alpha    90
_cell_angle_beta     90
_cell_angle_gamma    100.714

_symmetry_Int_Tables_number  14
_chemical_formula_structural  CuSb2H12O6F8
_chemical_formula_sum  Cu2Sb4H24O2F6
_cell_volume  592.6101013044778
_cell_formula_units_Z  2
loop_
  _symmetry_equiv_pos_site_id
 _symmetry_equiv_pos_as_xyz
 1  'x, y, z'
loop_
 _atom_site_type_symbol
 _atom_site_label
 _atom_site_symmetry_multiplicity
 _atom_site_fract_x
 _atom_site_fract_y
 _atom_site_fract_z
 _atom_site_fract_occupancy
 Cu  Cu1  1  0.00000  0.50000  0.00000  1
 Cu  Cu2  1  0.50000  -0.00000  0.50000  1
 F  F1  1  0.55274  0.62315  0.17722  1
 F  F2  1  0.05274  0.12315  0.32278  1
 F  F3  1  0.17492  0.25474  0.18762  1
 F  F4  1  0.90324  0.96074  0.10145  1
 F  F5  1  0.67492  0.75474  0.31238  1
 F  F6  1  0.83943  0.14016  0.77794  1
 F  F7  1  0.66057  0.35984  0.27794  1
 F  F8  1  0.16057  0.85984  0.22206  1
 F  F9  1  0.94726  0.87685  0.67722  1
 F  F10  1  0.82508  0.74526  0.81238  1
 F  F11  1  0.59676  0.53926  0.60145  1
 F  F12  1  0.40324  0.46074  0.39855  1
 F  F13  1  0.32508  0.24526  0.68762  1
 F  F14  1  0.44726  0.37685  0.82278  1
 F  F15  1  0.33943  0.64016  0.72206  1
 F  F16  1  0.09676  0.03926  0.89855  1
 H  H1  1  0.06475  0.81731  0.43922  1
 H  H2  1  0.43525  0.68269  0.93922  1
 H  H3  1  0.27650  0.15690  0.98013  1
 H  H4  1  0.63482  0.64686  0.44052  1
 H  H5  1  0.82896  0.15854  0.38953  1
 H  H6  1  0.21145  0.97816  0.37961  1
 H  H7  1  0.28855  0.52184  0.87961  1
 H  H8  1  0.11090  0.79711  0.08699  1
 H  H9  1  0.32896  0.65854  0.11047  1
 H  H10  1  0.17104  0.84146  0.61047  1
 H  H11  1  0.13482  0.14686  0.05948  1
 H  H12  1  0.61090  0.29711  0.41301  1
 H  H13  1  0.56475  0.31731  0.06078  1
 H  H14  1  0.72350  0.84310  0.01987  1
 H  H15  1  0.78855  0.02184  0.62039  1
 H  H16  1  0.36518  0.35314  0.55948  1
 H  H17  1  0.86518  0.85314  0.94052  1
 H  H18  1  0.22350  0.34310  0.48013  1
 H  H19  1  0.38910  0.70289  0.58699  1
 H  H20  1  0.67104  0.34146  0.88953  1
 H  H21  1  0.93525  0.18269  0.56078  1
 H  H22  1  0.88910  0.20289  0.91301  1
 H  H23  1  0.77650  0.65690  0.51987  1
 H  H24  1  0.71145  0.47816  0.12039  1
 O  O1  1  0.74683  0.11482  0.58166  1
 O  O2  1  0.24683  0.61482  0.91834  1
 O  O3  1  0.27534  0.79886  0.56783  1
 O  O4  1  0.73225  0.76749  0.97384  1
 O  O5  1  0.72466  0.20114  0.43217  1
 O  O6  1  0.75317  0.38518  0.08166  1
 O  O7  1  0.76775  0.73251  0.47384  1
 O  O8  1  0.22466  0.70114  0.06783  1
 O  O9  1  0.25317  0.88518  0.41834  1
 O  O10  1  0.77534  0.29886  0.93217  1
 O  O11  1  0.26775  0.23251  0.02616  1
 O  O12  1  0.23225  0.26749  0.52616  1
 Sb  Sb1  1  0.62931  0.47220  0.71844  1
 Sb  Sb2  1  0.37069  0.52780  0.28156  1
 Sb  Sb3  1  0.87069  0.02780  0.21844  1
 Sb  Sb4  1  0.12931  0.97220  0.78156  1
