CIF file written using JARVIS-Tools package.
data_CoSO4
_symmetry_space_group_name_H-M  'Cmcm'
_cell_length_a       4.73014
_cell_length_b       4.73014
_cell_length_c       6.42239
_cell_angle_alpha    90
_cell_angle_beta     90
_cell_angle_gamma    112.619

_symmetry_Int_Tables_number  63
_chemical_formula_structural  CoSO4
_chemical_formula_sum  Co2S2O8
_cell_volume  132.6437317048889
_cell_formula_units_Z  2
loop_
  _symmetry_equiv_pos_site_id
 _symmetry_equiv_pos_as_xyz
 1  'x, y, z'
loop_
 _atom_site_type_symbol
 _atom_site_label
 _atom_site_symmetry_multiplicity
 _atom_site_fract_x
 _atom_site_fract_y
 _atom_site_fract_z
 _atom_site_fract_occupancy
 Co  Co1  1  0.00000  0.00000  0.50000  1
 Co  Co2  1  0.00000  0.00000  0.00000  1
 O  O1  1  0.23057  0.30331  0.75000  1
 O  O2  1  0.76943  0.69669  0.25000  1
 O  O3  1  0.30331  0.23057  0.25000  1
 O  O4  1  0.69669  0.76943  0.75000  1
 O  O5  1  0.25041  0.74959  0.94164  1
 O  O6  1  0.74959  0.25041  0.44164  1
 O  O7  1  0.74959  0.25041  0.05836  1
 O  O8  1  0.25041  0.74959  0.55836  1
 S  S1  1  0.64820  0.35180  0.25000  1
 S  S2  1  0.35180  0.64820  0.75000  1
