CIF file written using JARVIS-Tools package.
data_SrH4O3
_symmetry_space_group_name_H-M  'Pm'
_cell_length_a       3.71242
_cell_length_b       6.11279
_cell_length_c       6.67714
_cell_angle_alpha    90.5635
_cell_angle_beta     90.0034
_cell_angle_gamma    90.0035

_symmetry_Int_Tables_number  6
_chemical_formula_structural  SrH4O3
_chemical_formula_sum  Sr2H8O6
_cell_volume  151.51865499247737
_cell_formula_units_Z  2
loop_
  _symmetry_equiv_pos_site_id
 _symmetry_equiv_pos_as_xyz
 1  'x, y, z'
loop_
 _atom_site_type_symbol
 _atom_site_label
 _atom_site_symmetry_multiplicity
 _atom_site_fract_x
 _atom_site_fract_y
 _atom_site_fract_z
 _atom_site_fract_occupancy
 H  H1  1  0.20451  0.09684  0.81520  1
 H  H2  1  0.78484  0.09685  0.81520  1
 H  H3  1  0.78412  0.85742  0.32244  1
 H  H4  1  0.20573  0.85742  0.32238  1
 H  H5  1  0.49455  0.95120  0.57976  1
 H  H6  1  0.49492  0.27526  0.59230  1
 H  H7  1  0.49501  0.98118  0.10537  1
 H  H8  1  0.49486  0.38004  0.94934  1
 O  O1  1  -0.00531  0.18903  0.86773  1
 O  O2  1  -0.00507  0.76566  0.36997  1
 O  O3  1  0.49468  0.92938  0.72490  1
 O  O4  1  0.49491  0.04246  0.24135  1
 O  O5  1  0.49484  0.42175  0.53482  1
 O  O6  1  0.49483  0.52293  0.01652  1
 Sr  Sr1  1  0.99479  0.62431  0.74594  1
 Sr  Sr2  1  -0.00511  0.35668  0.25157  1
