CIF file written using JARVIS-Tools package.
data_Li4Fe2Cu3O10
_symmetry_space_group_name_H-M  'P-1'
_cell_length_a       5.01919
_cell_length_b       5.21576
_cell_length_c       7.52231
_cell_angle_alpha    104.677
_cell_angle_beta     102.213
_cell_angle_gamma    105.38

_symmetry_Int_Tables_number  2
_chemical_formula_structural  Li4Fe2Cu3O10
_chemical_formula_sum  Li4Fe2Cu3O0
_cell_volume  175.28208256052744
_cell_formula_units_Z  1
loop_
  _symmetry_equiv_pos_site_id
 _symmetry_equiv_pos_as_xyz
 1  'x, y, z'
loop_
 _atom_site_type_symbol
 _atom_site_label
 _atom_site_symmetry_multiplicity
 _atom_site_fract_x
 _atom_site_fract_y
 _atom_site_fract_z
 _atom_site_fract_occupancy
 Cu  Cu1  1  0.00000  0.50000  -0.00000  1
 Cu  Cu2  1  0.69320  0.87676  0.89209  1
 Cu  Cu3  1  0.30680  0.12324  0.10791  1
 Fe  Fe1  1  0.09490  0.68013  0.68608  1
 Fe  Fe2  1  0.90510  0.31987  0.31392  1
 Li  Li1  1  0.22146  0.91449  0.40140  1
 Li  Li2  1  0.39508  0.29128  0.77311  1
 Li  Li3  1  0.60492  0.70872  0.22689  1
 Li  Li4  1  0.77854  0.08551  0.59860  1
 O  O1  1  0.66579  0.33928  0.08293  1
 O  O2  1  0.33421  0.66072  0.91707  1
 O  O3  1  0.12111  0.32548  0.54196  1
 O  O4  1  0.05647  0.02171  0.83442  1
 O  O5  1  0.87889  0.67452  0.45804  1
 O  O6  1  0.79349  0.47562  0.75554  1
 O  O7  1  0.56638  0.10216  0.33138  1
 O  O8  1  0.43362  0.89784  0.66862  1
 O  O9  1  0.20651  0.52438  0.24446  1
 O  O10  1  0.94353  0.97829  0.16558  1
