CIF file written using JARVIS-Tools package.
data_Y2SeO2
_symmetry_space_group_name_H-M  'P-3m1'
_cell_length_a       3.83777
_cell_length_b       3.83764
_cell_length_c       6.81742
_cell_angle_alpha    90
_cell_angle_beta     90
_cell_angle_gamma    120.001

_symmetry_Int_Tables_number  164
_chemical_formula_structural  Y2SeO2
_chemical_formula_sum  Y2SeO2
_cell_volume  86.95383618434684
_cell_formula_units_Z  1
loop_
  _symmetry_equiv_pos_site_id
 _symmetry_equiv_pos_as_xyz
 1  'x, y, z'
loop_
 _atom_site_type_symbol
 _atom_site_label
 _atom_site_symmetry_multiplicity
 _atom_site_fract_x
 _atom_site_fract_y
 _atom_site_fract_z
 _atom_site_fract_occupancy
 O  O1  1  0.33328  0.66665  0.62616  1
 O  O2  1  0.66662  0.33335  0.37384  1
 Se  Se1  1  -0.00001  -0.00000  0.00000  1
 Y  Y1  1  0.33329  0.66666  0.29033  1
 Y  Y2  1  0.66662  0.33334  0.70967  1
