CIF file written using JARVIS-Tools package.
data_TmMnGe
_symmetry_space_group_name_H-M  'Pnma'
_cell_length_a       4.02896
_cell_length_b       6.9304
_cell_length_c       7.83969
_cell_angle_alpha    90
_cell_angle_beta     90
_cell_angle_gamma    90

_symmetry_Int_Tables_number  62
_chemical_formula_structural  TmMnGe
_chemical_formula_sum  Tm4Mn4Ge4
_cell_volume  218.90199171932932
_cell_formula_units_Z  4
loop_
  _symmetry_equiv_pos_site_id
 _symmetry_equiv_pos_as_xyz
 1  'x, y, z'
loop_
 _atom_site_type_symbol
 _atom_site_label
 _atom_site_symmetry_multiplicity
 _atom_site_fract_x
 _atom_site_fract_y
 _atom_site_fract_z
 _atom_site_fract_occupancy
 Ge  Ge1  1  0.25000  0.27147  0.61896  1
 Ge  Ge2  1  0.75000  0.22853  0.11896  1
 Ge  Ge3  1  0.25000  0.77147  0.88104  1
 Ge  Ge4  1  0.75000  0.72853  0.38104  1
 Mn  Mn1  1  0.75000  0.36706  0.44364  1
 Mn  Mn2  1  0.25000  0.13294  0.94364  1
 Mn  Mn3  1  0.75000  0.86706  0.05636  1
 Mn  Mn4  1  0.25000  0.63294  0.55636  1
 Tm  Tm1  1  0.25000  0.52603  0.18303  1
 Tm  Tm2  1  0.75000  0.47397  0.81697  1
 Tm  Tm3  1  0.25000  0.02603  0.31697  1
 Tm  Tm4  1  0.75000  0.97397  0.68303  1
