CIF file written using JARVIS-Tools package.
data_AlH3O3
_symmetry_space_group_name_H-M  'P-1'
_cell_length_a       5.01522
_cell_length_b       5.3107
_cell_length_c       7.91565
_cell_angle_alpha    81.2566
_cell_angle_beta     85.5769
_cell_angle_gamma    83.6949

_symmetry_Int_Tables_number  2
_chemical_formula_structural  AlH3O3
_chemical_formula_sum  Al4H2O2
_cell_volume  206.72552030718342
_cell_formula_units_Z  4
loop_
  _symmetry_equiv_pos_site_id
 _symmetry_equiv_pos_as_xyz
 1  'x, y, z'
loop_
 _atom_site_type_symbol
 _atom_site_label
 _atom_site_symmetry_multiplicity
 _atom_site_fract_x
 _atom_site_fract_y
 _atom_site_fract_z
 _atom_site_fract_occupancy
 Al  Al1  1  0.02609  0.65349  0.33036  1
 Al  Al2  1  0.52487  0.82735  0.16293  1
 Al  Al3  1  0.97391  0.34651  0.66964  1
 Al  Al4  1  0.47513  0.17265  0.83707  1
 H  H1  1  0.69973  0.54689  0.88639  1
 H  H2  1  0.86731  0.88392  0.91406  1
 H  H3  1  0.13269  0.11608  0.08594  1
 H  H4  1  0.21557  0.17129  0.41123  1
 H  H5  1  0.21223  0.88845  0.69942  1
 H  H6  1  0.30027  0.45311  0.11361  1
 H  H7  1  0.43001  0.74305  0.47185  1
 H  H8  1  0.78443  0.82871  0.58877  1
 H  H9  1  0.78777  0.11155  0.30058  1
 H  H10  1  0.56999  0.25695  0.52815  1
 H  H11  1  0.79183  0.42681  0.13591  1
 H  H12  1  0.20817  0.57319  0.86409  1
 O  O1  1  0.67432  0.85828  0.92943  1
 O  O2  1  0.67975  0.16457  0.62028  1
 O  O3  1  0.16629  0.33792  0.45279  1
 O  O4  1  0.83371  0.66208  0.54721  1
 O  O5  1  0.74273  0.51540  0.23589  1
 O  O6  1  0.82545  0.96814  0.23505  1
 O  O7  1  0.75739  0.36274  0.87948  1
 O  O8  1  0.17455  0.03186  0.76495  1
 O  O9  1  0.32568  0.14172  0.07057  1
 O  O10  1  0.24261  0.63726  0.12052  1
 O  O11  1  0.32025  0.83543  0.37972  1
 O  O12  1  0.25727  0.48460  0.76411  1
