CIF file written using JARVIS-Tools package.
data_K2B2Se7
_symmetry_space_group_name_H-M  'C2/c'
_cell_length_a       7.04416
_cell_length_b       8.52334
_cell_length_c       11.2276
_cell_angle_alpha    74.7154
_cell_angle_beta     71.7178
_cell_angle_gamma    65.5922

_symmetry_Int_Tables_number  15
_chemical_formula_structural  K2B2Se7
_chemical_formula_sum  K4B4Se4
_cell_volume  575.8309382014018
_cell_formula_units_Z  2
loop_
  _symmetry_equiv_pos_site_id
 _symmetry_equiv_pos_as_xyz
 1  'x, y, z'
loop_
 _atom_site_type_symbol
 _atom_site_label
 _atom_site_symmetry_multiplicity
 _atom_site_fract_x
 _atom_site_fract_y
 _atom_site_fract_z
 _atom_site_fract_occupancy
 B  B1  1  0.84264  0.61448  0.15204  1
 B  B2  1  0.60915  0.88552  0.34796  1
 B  B3  1  0.15736  0.38552  0.84796  1
 B  B4  1  0.39085  0.11448  0.65204  1
 K  K1  1  0.67225  0.18586  0.02229  1
 K  K2  1  0.88039  0.31414  0.47771  1
 K  K3  1  0.32775  0.81414  0.97771  1
 K  K4  1  0.11961  0.68586  0.52229  1
 Se  Se1  1  0.53558  0.75000  0.25000  1
 Se  Se2  1  0.46442  0.25000  0.75000  1
 Se  Se3  1  0.92253  0.39952  0.76849  1
 Se  Se4  1  0.42862  0.26747  0.47794  1
 Se  Se5  1  0.82597  0.76747  0.97794  1
 Se  Se6  1  0.17403  0.23253  0.02206  1
 Se  Se7  1  0.61802  0.86884  0.67039  1
 Se  Se8  1  0.38198  0.13116  0.32961  1
 Se  Se9  1  0.15725  0.63116  0.82961  1
 Se  Se10  1  0.57138  0.73253  0.52206  1
 Se  Se11  1  0.07747  0.60048  0.23151  1
 Se  Se12  1  0.90946  0.89952  0.26849  1
 Se  Se13  1  0.84275  0.36884  0.17039  1
 Se  Se14  1  0.09054  0.10048  0.73151  1
