CIF file written using JARVIS-Tools package.
data_AgClO3
_symmetry_space_group_name_H-M  'P2_13'
_cell_length_a       6.65735
_cell_length_b       6.65735
_cell_length_c       6.65735
_cell_angle_alpha    90
_cell_angle_beta     90
_cell_angle_gamma    90

_symmetry_Int_Tables_number  198
_chemical_formula_structural  AgClO3
_chemical_formula_sum  Ag4Cl4O2
_cell_volume  295.05542466145306
_cell_formula_units_Z  4
loop_
  _symmetry_equiv_pos_site_id
 _symmetry_equiv_pos_as_xyz
 1  'x, y, z'
loop_
 _atom_site_type_symbol
 _atom_site_label
 _atom_site_symmetry_multiplicity
 _atom_site_fract_x
 _atom_site_fract_y
 _atom_site_fract_z
 _atom_site_fract_occupancy
 Ag  Ag1  1  0.07737  0.07737  0.07737  1
 Ag  Ag2  1  0.42263  0.92263  0.57737  1
 Ag  Ag3  1  0.57737  0.42263  0.92263  1
 Ag  Ag4  1  0.92263  0.57737  0.42263  1
 Cl  Cl1  1  0.08699  0.58699  0.91301  1
 Cl  Cl2  1  0.41301  0.41301  0.41301  1
 Cl  Cl3  1  0.58699  0.91301  0.08699  1
 Cl  Cl4  1  0.91301  0.08699  0.58699  1
 O  O1  1  0.00564  0.20309  0.41427  1
 O  O2  1  0.91427  0.49436  0.79691  1
 O  O3  1  0.20309  0.41427  0.00564  1
 O  O4  1  0.29691  0.58573  0.50564  1
 O  O5  1  0.08573  0.99436  0.70309  1
 O  O6  1  0.70309  0.08573  0.99436  1
 O  O7  1  0.50564  0.29691  0.58573  1
 O  O8  1  0.58573  0.50564  0.29691  1
 O  O9  1  0.41427  0.00564  0.20309  1
 O  O10  1  0.79691  0.91427  0.49436  1
 O  O11  1  0.49436  0.79691  0.91427  1
 O  O12  1  0.99436  0.70309  0.08573  1
