CIF file written using JARVIS-Tools package.
data_CaCoO2
_symmetry_space_group_name_H-M  'P1'
_cell_length_a       3.19722
_cell_length_b       8.02632
_cell_length_c       8.04998
_cell_angle_alpha    99.7388
_cell_angle_beta     91.8257
_cell_angle_gamma    93.9087

_symmetry_Int_Tables_number  1
_chemical_formula_structural  CaCoO2
_chemical_formula_sum  Ca4Co4O8
_cell_volume  202.92966285136637
_cell_formula_units_Z  4
loop_
  _symmetry_equiv_pos_site_id
 _symmetry_equiv_pos_as_xyz
 1  'x, y, z'
loop_
 _atom_site_type_symbol
 _atom_site_label
 _atom_site_symmetry_multiplicity
 _atom_site_fract_x
 _atom_site_fract_y
 _atom_site_fract_z
 _atom_site_fract_occupancy
 Ca  Ca1  1  0.19408  0.70992  0.91674  1
 Ca  Ca2  1  0.69064  0.27115  0.09459  1
 Ca  Ca3  1  0.68916  0.94295  0.31145  1
 Ca  Ca4  1  0.24589  0.02420  0.70752  1
 Co  Co1  1  0.05157  0.37580  0.71327  1
 Co  Co2  1  0.64299  0.66994  0.56003  1
 Co  Co3  1  0.28441  0.27148  0.43843  1
 Co  Co4  1  0.17989  0.61452  0.27010  1
 O  O1  1  0.55055  0.46213  0.35851  1
 O  O2  1  0.77801  0.17166  0.54664  1
 O  O3  1  0.16277  0.80122  0.46645  1
 O  O4  1  0.58081  0.51957  0.73070  1
 O  O5  1  0.17194  0.26898  0.89809  1
 O  O6  1  0.71921  0.86347  0.79703  1
 O  O7  1  0.71032  0.67863  0.13098  1
 O  O8  1  0.19646  0.10831  0.21792  1
