CIF file written using JARVIS-Tools package.
data_PbI2
_symmetry_space_group_name_H-M  'P3m1'
_cell_length_a       4.58548
_cell_length_b       4.58549
_cell_length_c       21.147
_cell_angle_alpha    90
_cell_angle_beta     90
_cell_angle_gamma    120

_symmetry_Int_Tables_number  156
_chemical_formula_structural  PbI2
_chemical_formula_sum  Pb3I6
_cell_volume  385.0793303465205
_cell_formula_units_Z  3
loop_
  _symmetry_equiv_pos_site_id
 _symmetry_equiv_pos_as_xyz
 1  'x, y, z'
loop_
 _atom_site_type_symbol
 _atom_site_label
 _atom_site_symmetry_multiplicity
 _atom_site_fract_x
 _atom_site_fract_y
 _atom_site_fract_z
 _atom_site_fract_occupancy
 I  I1  1  0.33333  0.66667  0.42274  1
 I  I2  1  0.33333  0.66667  0.08996  1
 I  I3  1  0.00000  0.00000  0.57697  1
 I  I4  1  0.66667  0.33333  0.91064  1
 I  I5  1  0.66667  0.33333  0.24343  1
 I  I6  1  0.33333  0.66667  0.75628  1
 Pb  Pb1  1  0.66667  0.33333  0.66661  1
 Pb  Pb2  1  0.00000  0.00000  0.33309  1
 Pb  Pb3  1  0.00000  0.00000  0.00027  1
