CIF file written using JARVIS-Tools package.
data_AuClO
_symmetry_space_group_name_H-M  'R-3'
_cell_length_a       8.23447
_cell_length_b       8.23446
_cell_length_c       8.23446
_cell_angle_alpha    113.421
_cell_angle_beta     113.421
_cell_angle_gamma    113.421

_symmetry_Int_Tables_number  148
_chemical_formula_structural  AuClO
_chemical_formula_sum  Au6Cl6O6
_cell_volume  353.3234502178141
_cell_formula_units_Z  6
loop_
  _symmetry_equiv_pos_site_id
 _symmetry_equiv_pos_as_xyz
 1  'x, y, z'
loop_
 _atom_site_type_symbol
 _atom_site_label
 _atom_site_symmetry_multiplicity
 _atom_site_fract_x
 _atom_site_fract_y
 _atom_site_fract_z
 _atom_site_fract_occupancy
 Au  Au1  1  0.29432  0.41323  0.76522  1
 Au  Au2  1  0.41323  0.76522  0.29432  1
 Au  Au3  1  0.70568  0.58677  0.23478  1
 Au  Au4  1  0.23478  0.70568  0.58677  1
 Au  Au5  1  0.58677  0.23478  0.70568  1
 Au  Au6  1  0.76522  0.29432  0.41323  1
 Cl  Cl1  1  0.37585  0.08163  0.12638  1
 Cl  Cl2  1  0.08163  0.12638  0.37585  1
 Cl  Cl3  1  0.12638  0.37585  0.08163  1
 Cl  Cl4  1  0.91837  0.87362  0.62415  1
 Cl  Cl5  1  0.62415  0.91837  0.87362  1
 Cl  Cl6  1  0.87362  0.62415  0.91837  1
 O  O1  1  0.12850  0.53145  0.69164  1
 O  O2  1  0.69164  0.12850  0.53145  1
 O  O3  1  0.53145  0.69164  0.12850  1
 O  O4  1  0.87150  0.46855  0.30836  1
 O  O5  1  0.30836  0.87150  0.46855  1
 O  O6  1  0.46855  0.30836  0.87150  1
