CIF file written using JARVIS-Tools package.
data_Mn2F7
_symmetry_space_group_name_H-M  'C2/c'
_cell_length_a       5.31672
_cell_length_b       5.31672
_cell_length_c       9.68043
_cell_angle_alpha    82.2172
_cell_angle_beta     97.7828
_cell_angle_gamma    56.7581

_symmetry_Int_Tables_number  15
_chemical_formula_structural  Mn2F7
_chemical_formula_sum  Mn4F4
_cell_volume  219.37790948131828
_cell_formula_units_Z  2
loop_
  _symmetry_equiv_pos_site_id
 _symmetry_equiv_pos_as_xyz
 1  'x, y, z'
loop_
 _atom_site_type_symbol
 _atom_site_label
 _atom_site_symmetry_multiplicity
 _atom_site_fract_x
 _atom_site_fract_y
 _atom_site_fract_z
 _atom_site_fract_occupancy
 F  F1  1  0.67007  0.05916  0.47357  1
 F  F2  1  0.19518  0.46492  0.59242  1
 F  F3  1  0.20210  0.20210  0.25000  1
 F  F4  1  0.05916  0.67007  0.02643  1
 F  F5  1  0.46492  0.19518  0.90758  1
 F  F6  1  0.79790  0.79790  0.75000  1
 F  F7  1  0.35463  0.79051  0.82878  1
 F  F8  1  0.32993  0.94084  0.52643  1
 F  F9  1  0.80482  0.53508  0.40758  1
 F  F10  1  0.79051  0.35463  0.67122  1
 F  F11  1  0.64537  0.20949  0.17122  1
 F  F12  1  0.53508  0.80482  0.09242  1
 F  F13  1  0.94084  0.32993  0.97357  1
 F  F14  1  0.20949  0.64537  0.32878  1
 Mn  Mn1  1  0.76826  0.67389  0.58053  1
 Mn  Mn2  1  0.67389  0.76826  0.91947  1
 Mn  Mn3  1  0.32611  0.23174  0.08053  1
 Mn  Mn4  1  0.23174  0.32611  0.41947  1
