CIF file written using JARVIS-Tools package.
data_Li2CuF4
_symmetry_space_group_name_H-M  'Pc'
_cell_length_a       5.2913
_cell_length_b       5.65351
_cell_length_c       5.53049
_cell_angle_alpha    119.163
_cell_angle_beta     89.9997
_cell_angle_gamma    90.001

_symmetry_Int_Tables_number  7
_chemical_formula_structural  Li2CuF4
_chemical_formula_sum  Li4Cu2F8
_cell_volume  144.46941165849844
_cell_formula_units_Z  2
loop_
  _symmetry_equiv_pos_site_id
 _symmetry_equiv_pos_as_xyz
 1  'x, y, z'
loop_
 _atom_site_type_symbol
 _atom_site_label
 _atom_site_symmetry_multiplicity
 _atom_site_fract_x
 _atom_site_fract_y
 _atom_site_fract_z
 _atom_site_fract_occupancy
 Cu  Cu1  1  0.49331  0.00858  0.54295  1
 Cu  Cu2  1  0.00669  0.00858  0.04294  1
 F  F1  1  0.86773  0.36834  0.24447  1
 F  F2  1  0.84287  0.83383  0.22800  1
 F  F3  1  0.65712  0.83384  0.72800  1
 F  F4  1  0.63228  0.36834  0.74448  1
 F  F5  1  0.34905  0.65062  0.29545  1
 F  F6  1  0.37694  0.10539  0.26864  1
 F  F7  1  0.12306  0.10538  0.76864  1
 F  F8  1  0.15095  0.65062  0.79545  1
 Li  Li1  1  0.95145  0.44189  0.91682  1
 Li  Li2  1  0.54855  0.44189  0.41682  1
 Li  Li3  1  0.48047  0.71709  0.98038  1
 Li  Li4  1  0.01954  0.71708  0.48038  1
