CIF file written using JARVIS-Tools package.
data_Li2Co2SiO6
_symmetry_space_group_name_H-M  'Cmce'
_cell_length_a       4.85074
_cell_length_b       4.83432
_cell_length_c       9.66024
_cell_angle_alpha    90
_cell_angle_beta     90
_cell_angle_gamma    59.8876

_symmetry_Int_Tables_number  64
_chemical_formula_structural  Li2Co2SiO6
_chemical_formula_sum  Li4Co4Si2O2
_cell_volume  195.96063819938135
_cell_formula_units_Z  2
loop_
  _symmetry_equiv_pos_site_id
 _symmetry_equiv_pos_as_xyz
 1  'x, y, z'
loop_
 _atom_site_type_symbol
 _atom_site_label
 _atom_site_symmetry_multiplicity
 _atom_site_fract_x
 _atom_site_fract_y
 _atom_site_fract_z
 _atom_site_fract_occupancy
 Co  Co1  1  0.66453  0.67093  0.00000  1
 Co  Co2  1  0.16453  0.67093  0.50000  1
 Co  Co3  1  0.33547  0.32907  0.00000  1
 Co  Co4  1  0.83547  0.32907  0.50000  1
 Li  Li1  1  0.14375  0.50000  0.75000  1
 Li  Li2  1  0.35625  0.50000  0.25000  1
 Li  Li3  1  0.64375  0.50000  0.75000  1
 Li  Li4  1  0.85625  0.50000  0.25000  1
 O  O1  1  0.68790  0.00000  0.90152  1
 O  O2  1  0.31736  0.67893  0.89729  1
 O  O3  1  0.81736  0.67893  0.60271  1
 O  O4  1  0.00372  0.67893  0.10271  1
 O  O5  1  0.50372  0.67893  0.39729  1
 O  O6  1  0.49628  0.32107  0.60271  1
 O  O7  1  0.18790  0.00000  0.59848  1
 O  O8  1  0.18264  0.32107  0.39729  1
 O  O9  1  0.31210  0.00000  0.09848  1
 O  O10  1  0.68264  0.32107  0.10271  1
 O  O11  1  0.99628  0.32107  0.89729  1
 O  O12  1  0.81210  0.00000  0.40152  1
 Si  Si1  1  0.00000  0.00000  0.00000  1
 Si  Si2  1  0.50000  0.00000  0.50000  1
