CIF file written using JARVIS-Tools package.
data_Si2N2O
_symmetry_space_group_name_H-M  'Cmc2_1'
_cell_length_a       4.89388
_cell_length_b       5.26588
_cell_length_c       5.26588
_cell_angle_alpha    116.644
_cell_angle_beta     90
_cell_angle_gamma    90

_symmetry_Int_Tables_number  36
_chemical_formula_structural  Si2N2O
_chemical_formula_sum  Si4N4O2
_cell_volume  121.2941064097621
_cell_formula_units_Z  2
loop_
  _symmetry_equiv_pos_site_id
 _symmetry_equiv_pos_as_xyz
 1  'x, y, z'
loop_
 _atom_site_type_symbol
 _atom_site_label
 _atom_site_symmetry_multiplicity
 _atom_site_fract_x
 _atom_site_fract_y
 _atom_site_fract_z
 _atom_site_fract_occupancy
 N  N1  1  0.38353  0.09273  0.65898  1
 N  N2  1  0.88353  0.90727  0.34102  1
 N  N3  1  0.88353  0.34102  0.90727  1
 N  N4  1  0.38353  0.65898  0.09273  1
 O  O1  1  0.78270  0.78390  0.78390  1
 O  O2  1  0.28270  0.21610  0.21610  1
 Si  Si1  1  0.72876  0.02440  0.67150  1
 Si  Si2  1  0.22876  0.97560  0.32850  1
 Si  Si3  1  0.22876  0.32850  0.97560  1
 Si  Si4  1  0.72876  0.67150  0.02440  1
