CIF file written using JARVIS-Tools package.
data_Na2ZrSe3
_symmetry_space_group_name_H-M  'C2/m'
_cell_length_a       6.95441
_cell_length_b       6.962
_cell_length_c       7.23699
_cell_angle_alpha    80.6981
_cell_angle_beta     71.1176
_cell_angle_gamma    60.0361

_symmetry_Int_Tables_number  12
_chemical_formula_structural  Na2ZrSe3
_chemical_formula_sum  Na4Zr2Se6
_cell_volume  287.2215066767589
_cell_formula_units_Z  2
loop_
  _symmetry_equiv_pos_site_id
 _symmetry_equiv_pos_as_xyz
 1  'x, y, z'
loop_
 _atom_site_type_symbol
 _atom_site_label
 _atom_site_symmetry_multiplicity
 _atom_site_fract_x
 _atom_site_fract_y
 _atom_site_fract_z
 _atom_site_fract_occupancy
 Na  Na1  1  0.00000  0.00000  0.00000  1
 Na  Na2  1  0.50000  0.00000  0.50000  1
 Na  Na3  1  0.15747  0.68506  0.50000  1
 Na  Na4  1  0.84253  0.31494  0.50000  1
 Se  Se1  1  0.43480  0.64152  0.77329  1
 Se  Se2  1  0.28244  0.00000  0.22464  1
 Se  Se3  1  0.56520  0.35848  0.22671  1
 Se  Se4  1  0.92369  0.64152  0.22671  1
 Se  Se5  1  0.07631  0.35848  0.77329  1
 Se  Se6  1  0.71756  -0.00000  0.77536  1
 Zr  Zr1  1  0.66867  0.66266  0.00000  1
 Zr  Zr2  1  0.33133  0.33734  -0.00000  1
