CIF file written using JARVIS-Tools package.
data_AgN
_symmetry_space_group_name_H-M  'Ama2'
_cell_length_a       4.11236
_cell_length_b       4.1125
_cell_length_c       4.09984
_cell_angle_alpha    89.9855
_cell_angle_beta     89.9598
_cell_angle_gamma    123.448

_symmetry_Int_Tables_number  40
_chemical_formula_structural  AgN
_chemical_formula_sum  Ag2N2
_cell_volume  57.85352668262907
_cell_formula_units_Z  2
loop_
  _symmetry_equiv_pos_site_id
 _symmetry_equiv_pos_as_xyz
 1  'x, y, z'
loop_
 _atom_site_type_symbol
 _atom_site_label
 _atom_site_symmetry_multiplicity
 _atom_site_fract_x
 _atom_site_fract_y
 _atom_site_fract_z
 _atom_site_fract_occupancy
 Ag  Ag1  1  0.40007  0.72081  -0.00348  1
 Ag  Ag2  1  0.71230  0.40865  0.49649  1
 N  N1  1  0.55963  0.82899  0.49644  1
 N  N2  1  0.82038  0.56811  -0.00360  1
