CIF file written using JARVIS-Tools package.
data_Rb2B2Se7
_symmetry_space_group_name_H-M  'C2/c'
_cell_length_a       7.28657
_cell_length_b       8.68273
_cell_length_c       11.3879
_cell_angle_alpha    75.2643
_cell_angle_beta     71.3415
_cell_angle_gamma    65.1906

_symmetry_Int_Tables_number  15
_chemical_formula_structural  Rb2B2Se7
_chemical_formula_sum  Rb4B4Se4
_cell_volume  613.5417469894217
_cell_formula_units_Z  2
loop_
  _symmetry_equiv_pos_site_id
 _symmetry_equiv_pos_as_xyz
 1  'x, y, z'
loop_
 _atom_site_type_symbol
 _atom_site_label
 _atom_site_symmetry_multiplicity
 _atom_site_fract_x
 _atom_site_fract_y
 _atom_site_fract_z
 _atom_site_fract_occupancy
 B  B1  1  0.61317  0.88373  0.34861  1
 B  B2  1  0.84551  0.61627  0.15139  1
 B  B3  1  0.38683  0.11627  0.65139  1
 B  B4  1  0.15449  0.38373  0.84861  1
 Rb  Rb1  1  0.66298  0.19167  0.02003  1
 Rb  Rb2  1  0.33702  0.80833  0.97997  1
 Rb  Rb3  1  0.12531  0.69167  0.52003  1
 Rb  Rb4  1  0.87469  0.30833  0.47997  1
 Se  Se1  1  0.83574  0.76339  0.97921  1
 Se  Se2  1  0.57834  0.73661  0.52079  1
 Se  Se3  1  0.15735  0.62307  0.83294  1
 Se  Se4  1  0.61336  0.87693  0.66706  1
 Se  Se5  1  0.38664  0.12307  0.33294  1
 Se  Se6  1  0.93078  0.39801  0.76753  1
 Se  Se7  1  0.45409  0.25000  0.75000  1
 Se  Se8  1  0.06922  0.60199  0.23247  1
 Se  Se9  1  0.90368  0.89801  0.26753  1
 Se  Se10  1  0.16425  0.23661  0.02079  1
 Se  Se11  1  0.54591  0.75000  0.25000  1
 Se  Se12  1  0.42166  0.26339  0.47921  1
 Se  Se13  1  0.09632  0.10199  0.73247  1
 Se  Se14  1  0.84265  0.37693  0.16706  1
