CIF file written using JARVIS-Tools package.
data_TbH3O3
_symmetry_space_group_name_H-M  'P6_3/m'
_cell_length_a       6.29254
_cell_length_b       6.29254
_cell_length_c       3.56968
_cell_angle_alpha    90
_cell_angle_beta     90
_cell_angle_gamma    120

_symmetry_Int_Tables_number  176
_chemical_formula_structural  TbH3O3
_chemical_formula_sum  Tb2H6O6
_cell_volume  122.4085384469725
_cell_formula_units_Z  2
loop_
  _symmetry_equiv_pos_site_id
 _symmetry_equiv_pos_as_xyz
 1  'x, y, z'
loop_
 _atom_site_type_symbol
 _atom_site_label
 _atom_site_symmetry_multiplicity
 _atom_site_fract_x
 _atom_site_fract_y
 _atom_site_fract_z
 _atom_site_fract_occupancy
 H  H1  1  0.13473  0.86099  0.25000  1
 H  H2  1  0.72627  0.86527  0.25000  1
 H  H3  1  0.13901  0.27373  0.25000  1
 H  H4  1  0.86527  0.13901  0.75000  1
 H  H5  1  0.27373  0.13473  0.75000  1
 H  H6  1  0.86099  0.72627  0.75000  1
 O  O1  1  0.31006  0.91681  0.25000  1
 O  O2  1  0.60675  0.68994  0.25000  1
 O  O3  1  0.08319  0.39325  0.25000  1
 O  O4  1  0.68994  0.08319  0.75000  1
 O  O5  1  0.39325  0.31006  0.75000  1
 O  O6  1  0.91681  0.60675  0.75000  1
 Tb  Tb1  1  0.66667  0.33333  0.25000  1
 Tb  Tb2  1  0.33333  0.66667  0.75000  1
