CIF file written using JARVIS-Tools package.
data_SnC2S2N2
_symmetry_space_group_name_H-M  'P-1'
_cell_length_a       4.79408
_cell_length_b       5.72651
_cell_length_c       10.3194
_cell_angle_alpha    100.236
_cell_angle_beta     96.6114
_cell_angle_gamma    93.025

_symmetry_Int_Tables_number  2
_chemical_formula_structural  SnC2S2N2
_chemical_formula_sum  Sn2C4S4N4
_cell_volume  276.1593797057833
_cell_formula_units_Z  2
loop_
  _symmetry_equiv_pos_site_id
 _symmetry_equiv_pos_as_xyz
 1  'x, y, z'
loop_
 _atom_site_type_symbol
 _atom_site_label
 _atom_site_symmetry_multiplicity
 _atom_site_fract_x
 _atom_site_fract_y
 _atom_site_fract_z
 _atom_site_fract_occupancy
 C  C1  1  0.79522  0.25133  0.00267  1
 C  C2  1  0.20478  0.74867  0.99733  1
 C  C3  1  0.80928  0.60176  0.62674  1
 C  C4  1  0.19072  0.39824  0.37326  1
 N  N1  1  0.14769  0.58878  0.34930  1
 N  N2  1  0.91680  0.22515  0.90829  1
 N  N3  1  0.08320  0.77485  0.09171  1
 N  N4  1  0.85231  0.41122  0.65070  1
 S  S1  1  0.61600  0.28249  0.12733  1
 S  S2  1  0.73626  0.85939  0.59328  1
 S  S3  1  0.26374  0.14061  0.40672  1
 S  S4  1  0.38400  0.71751  0.87267  1
 Sn  Sn1  1  0.81763  0.80391  0.25600  1
 Sn  Sn2  1  0.18237  0.19609  0.74400  1
