CIF file written using JARVIS-Tools package.
data_SnH12C6F2
_symmetry_space_group_name_H-M  'P2_1/m'
_cell_length_a       4.21238
_cell_length_b       4.80555
_cell_length_c       19.707
_cell_angle_alpha    90.0075
_cell_angle_beta     90.0028
_cell_angle_gamma    117.853

_symmetry_Int_Tables_number  11
_chemical_formula_structural  SnH12C6F2
_chemical_formula_sum  Sn2H24C2F4
_cell_volume  352.7077074924817
_cell_formula_units_Z  2
loop_
  _symmetry_equiv_pos_site_id
 _symmetry_equiv_pos_as_xyz
 1  'x, y, z'
loop_
 _atom_site_type_symbol
 _atom_site_label
 _atom_site_symmetry_multiplicity
 _atom_site_fract_x
 _atom_site_fract_y
 _atom_site_fract_z
 _atom_site_fract_occupancy
 C  C1  1  0.44711  0.75389  0.92338  1
 C  C2  1  0.93531  0.08089  0.30224  1
 C  C3  1  0.70967  0.99193  0.87327  1
 C  C4  1  0.67366  0.85038  0.80223  1
 C  C5  1  0.16185  0.17736  0.62952  1
 C  C6  1  0.44716  0.75392  0.12950  1
 C  C7  1  0.93532  0.08090  0.75068  1
 C  C8  1  0.89929  0.93933  0.67964  1
 C  C9  1  0.70973  0.99194  0.17964  1
 C  C10  1  0.67366  0.85038  0.25067  1
 C  C11  1  0.16182  0.17735  0.42341  1
 C  C12  1  0.89926  0.93932  0.37327  1
 F  F1  1  0.77875  0.39298  0.02645  1
 F  F2  1  0.08194  0.03078  0.02645  1
 F  F3  1  0.52703  0.90045  0.52644  1
 F  F4  1  0.83024  0.53826  0.52646  1
 H  H1  1  0.21375  0.16768  0.76901  1
 H  H2  1  0.89223  0.29082  0.74727  1
 H  H3  1  0.48116  0.54060  0.12631  1
 H  H4  1  0.16534  0.68210  0.14226  1
 H  H5  1  0.66567  0.20121  0.18271  1
 H  H6  1  0.44368  0.24919  0.64229  1
 H  H7  1  0.12783  0.39067  0.62635  1
 H  H8  1  0.16528  0.68206  0.91062  1
 H  H9  1  0.48112  0.54057  0.92655  1
 H  H10  1  0.98816  0.07906  0.89126  1
 H  H11  1  0.66558  0.20118  0.87021  1
 H  H12  1  0.62077  0.85221  0.39125  1
 H  H13  1  0.44365  0.24918  0.41065  1
 H  H14  1  0.12781  0.39066  0.42660  1
 H  H15  1  0.98822  0.07906  0.16166  1
 H  H16  1  0.21374  0.16765  0.28392  1
 H  H17  1  0.71672  0.64043  0.24725  1
 H  H18  1  0.39522  0.76362  0.26898  1
 H  H19  1  -0.05668  0.73006  0.37020  1
 H  H20  1  0.39523  0.76360  0.78390  1
 H  H21  1  0.71675  0.64045  0.80564  1
 H  H22  1  0.62080  0.85219  0.66165  1
 H  H23  1  -0.05661  0.73008  0.68270  1
 H  H24  1  0.89224  0.29082  0.30566  1
 Sn  Sn1  1  0.51409  0.91351  0.02645  1
 Sn  Sn2  1  0.09488  0.01772  0.52646  1
