CIF file written using JARVIS-Tools package.
data_Tl2Se3O9
_symmetry_space_group_name_H-M  'P2_1/c'
_cell_length_a       4.58873
_cell_length_b       11.4174
_cell_length_c       16.9041
_cell_angle_alpha    90
_cell_angle_beta     96.5541
_cell_angle_gamma    90

_symmetry_Int_Tables_number  14
_chemical_formula_structural  Tl2Se3O9
_chemical_formula_sum  Tl8Se2O36
_cell_volume  879.8441283881737
_cell_formula_units_Z  4
loop_
  _symmetry_equiv_pos_site_id
 _symmetry_equiv_pos_as_xyz
 1  'x, y, z'
loop_
 _atom_site_type_symbol
 _atom_site_label
 _atom_site_symmetry_multiplicity
 _atom_site_fract_x
 _atom_site_fract_y
 _atom_site_fract_z
 _atom_site_fract_occupancy
 O  O1  1  0.71200  0.41353  0.61154  1
 O  O2  1  0.52973  0.47408  0.08772  1
 O  O3  1  0.57145  0.25975  0.22673  1
 O  O4  1  0.84501  0.46485  0.41909  1
 O  O5  1  0.81375  0.06615  0.25175  1
 O  O6  1  0.31375  0.43385  0.75175  1
 O  O7  1  0.07145  0.24025  0.72673  1
 O  O8  1  0.92855  0.75975  0.27327  1
 O  O9  1  0.40088  0.73640  0.98420  1
 O  O10  1  0.10763  0.61163  0.15629  1
 O  O11  1  0.70993  0.12985  0.82183  1
 O  O12  1  0.99757  0.33075  0.12263  1
 O  O13  1  0.78800  0.91353  0.88846  1
 O  O14  1  0.50243  0.83075  0.37737  1
 O  O15  1  0.60763  0.88837  0.65629  1
 O  O16  1  0.34501  0.03515  0.91909  1
 O  O17  1  0.39237  0.11163  0.34371  1
 O  O18  1  0.42855  0.74025  0.77327  1
 O  O19  1  0.00243  0.66925  0.87737  1
 O  O20  1  0.20993  0.37015  0.32183  1
 O  O21  1  0.21200  0.08647  0.11154  1
 O  O22  1  0.15499  0.53515  0.58091  1
 O  O23  1  0.49757  0.16925  0.62263  1
 O  O24  1  0.18625  0.93385  0.74825  1
 O  O25  1  0.09912  0.23640  0.51580  1
 O  O26  1  0.47027  0.52592  0.91228  1
 O  O27  1  0.65499  0.96485  0.08091  1
 O  O28  1  0.59912  0.26360  0.01580  1
 O  O29  1  0.29007  0.87015  0.17817  1
 O  O30  1  0.97027  0.97408  0.41228  1
 O  O31  1  0.89237  0.38837  0.84371  1
 O  O32  1  0.28800  0.58647  0.38846  1
 O  O33  1  0.68625  0.56615  0.24825  1
 O  O34  1  0.79007  0.62985  0.67817  1
 O  O35  1  0.02973  0.02592  0.58772  1
 O  O36  1  0.90088  0.76360  0.48420  1
 Se  Se1  1  0.27589  0.10560  0.54055  1
 Se  Se2  1  0.30788  0.82168  0.68643  1
 Se  Se3  1  0.78364  0.55908  0.58730  1
 Se  Se4  1  0.80788  0.67832  0.18643  1
 Se  Se5  1  0.28364  0.94092  0.08730  1
 Se  Se6  1  0.21636  0.44092  0.41270  1
 Se  Se7  1  0.77589  0.39440  0.04055  1
 Se  Se8  1  0.69212  0.17832  0.31357  1
 Se  Se9  1  0.71636  0.05908  0.91270  1
 Se  Se10  1  0.19212  0.32168  0.81357  1
 Se  Se11  1  0.22411  0.60560  0.95945  1
 Se  Se12  1  0.72411  0.89440  0.45945  1
 Tl  Tl1  1  0.73372  0.15009  0.12478  1
 Tl  Tl2  1  0.31613  0.43889  0.20530  1
 Tl  Tl3  1  0.23372  0.34991  0.62478  1
 Tl  Tl4  1  0.18387  0.93889  0.29470  1
 Tl  Tl5  1  0.76628  0.65009  0.37522  1
 Tl  Tl6  1  0.26628  0.84991  0.87522  1
 Tl  Tl7  1  0.68387  0.56111  0.79470  1
 Tl  Tl8  1  0.81613  0.06111  0.70530  1
