CIF file written using JARVIS-Tools package.
data_TlP5
_symmetry_space_group_name_H-M  'Pmc2_1'
_cell_length_a       6.54524
_cell_length_b       7.0287
_cell_length_c       12.3307
_cell_angle_alpha    90
_cell_angle_beta     90
_cell_angle_gamma    90

_symmetry_Int_Tables_number  26
_chemical_formula_structural  TlP5
_chemical_formula_sum  Tl4P20
_cell_volume  567.2655560468202
_cell_formula_units_Z  4
loop_
  _symmetry_equiv_pos_site_id
 _symmetry_equiv_pos_as_xyz
 1  'x, y, z'
loop_
 _atom_site_type_symbol
 _atom_site_label
 _atom_site_symmetry_multiplicity
 _atom_site_fract_x
 _atom_site_fract_y
 _atom_site_fract_z
 _atom_site_fract_occupancy
 P  P1  1  0.74726  0.40792  0.76160  1
 P  P2  1  0.50000  0.35319  0.04199  1
 P  P3  1  0.50000  0.64681  0.54199  1
 P  P4  1  0.50000  0.38602  0.21678  1
 P  P5  1  0.50000  0.61398  0.71678  1
 P  P6  1  0.24980  0.21438  0.61130  1
 P  P7  1  0.75020  0.78562  0.11130  1
 P  P8  1  0.75020  0.21438  0.61130  1
 P  P9  1  0.50000  0.33997  0.51067  1
 P  P10  1  0.24980  0.78562  0.11130  1
 P  P11  1  0.74726  0.59208  0.26160  1
 P  P12  1  0.50000  0.66003  0.01067  1
 P  P13  1  0.25274  0.59208  0.26160  1
 P  P14  1  0.00000  0.61661  0.72843  1
 P  P15  1  0.00000  0.38339  0.22843  1
 P  P16  1  0.00000  0.82966  0.85893  1
 P  P17  1  0.00000  0.17034  0.35893  1
 P  P18  1  0.00000  0.65427  0.00859  1
 P  P19  1  0.00000  0.34573  0.50859  1
 P  P20  1  0.25274  0.40792  0.76160  1
 Tl  Tl1  1  0.00000  0.22224  -0.00052  1
 Tl  Tl2  1  0.00000  0.77776  0.49948  1
 Tl  Tl3  1  0.50000  0.98518  0.84103  1
 Tl  Tl4  1  0.50000  0.01482  0.34103  1
