CIF file written using JARVIS-Tools package.
data_VOF3
_symmetry_space_group_name_H-M  'Cmcm'
_cell_length_a       5.44959
_cell_length_b       10.976
_cell_length_c       4.94061
_cell_angle_alpha    89.9922
_cell_angle_beta     123.486
_cell_angle_gamma    90.0023

_symmetry_Int_Tables_number  63
_chemical_formula_structural  VOF3
_chemical_formula_sum  V4O4F2
_cell_volume  246.47021919268315
_cell_formula_units_Z  4
loop_
  _symmetry_equiv_pos_site_id
 _symmetry_equiv_pos_as_xyz
 1  'x, y, z'
loop_
 _atom_site_type_symbol
 _atom_site_label
 _atom_site_symmetry_multiplicity
 _atom_site_fract_x
 _atom_site_fract_y
 _atom_site_fract_z
 _atom_site_fract_occupancy
 F  F1  1  0.25009  0.10988  0.00009  1
 F  F2  1  0.25032  0.39032  -0.00015  1
 F  F3  1  0.78479  0.50010  0.56964  1
 F  F4  1  0.21521  0.49990  0.43036  1
 F  F5  1  0.74991  0.89012  -0.00009  1
 F  F6  1  0.21517  -0.00004  0.43036  1
 F  F7  1  0.33360  0.74994  0.59948  1
 F  F8  1  0.66640  0.25006  0.40052  1
 F  F9  1  0.73434  0.75002  0.40070  1
 F  F10  1  0.74968  0.60968  0.00015  1
 F  F11  1  0.78483  0.00004  0.56964  1
 F  F12  1  0.26566  0.24998  0.59930  1
 O  O1  1  0.77034  0.12907  -0.00003  1
 O  O2  1  0.22940  0.62925  0.00021  1
 O  O3  1  0.77060  0.37075  -0.00021  1
 O  O4  1  0.22966  0.87093  0.00003  1
 V  V1  1  0.42390  0.75002  0.00009  1
 V  V2  1  0.57610  0.24998  -0.00009  1
 V  V3  1  -0.00000  0.50000  0.00000  1
 V  V4  1  0.00000  0.00000  0.00000  1
