CIF file written using JARVIS-Tools package.
data_CrB6H16
_symmetry_space_group_name_H-M  'P-1'
_cell_length_a       4.34835
_cell_length_b       5.58457
_cell_length_c       8.76606
_cell_angle_alpha    103.538
_cell_angle_beta     92.9057
_cell_angle_gamma    112.46

_symmetry_Int_Tables_number  2
_chemical_formula_structural  CrB6H16
_chemical_formula_sum  CrB6H6
_cell_volume  188.91810433549023
_cell_formula_units_Z  1
loop_
  _symmetry_equiv_pos_site_id
 _symmetry_equiv_pos_as_xyz
 1  'x, y, z'
loop_
 _atom_site_type_symbol
 _atom_site_label
 _atom_site_symmetry_multiplicity
 _atom_site_fract_x
 _atom_site_fract_y
 _atom_site_fract_z
 _atom_site_fract_occupancy
 B  B1  1  0.31488  0.61582  0.29304  1
 B  B2  1  0.68512  0.38418  0.70696  1
 B  B3  1  0.10230  0.32357  0.12344  1
 B  B4  1  0.26755  0.29859  0.31059  1
 B  B5  1  0.89770  0.67643  0.87656  1
 B  B6  1  0.73245  0.70141  0.68941  1
 Cr  Cr1  1  0.00000  0.50000  0.50000  1
 H  H1  1  0.25557  0.29773  0.01501  1
 H  H2  1  0.39763  0.22397  0.68564  1
 H  H3  1  0.53023  0.27583  0.33990  1
 H  H4  1  0.14296  0.72266  0.37271  1
 H  H5  1  0.80837  0.39089  0.84258  1
 H  H6  1  0.46977  0.72417  0.66010  1
 H  H7  1  0.88266  0.89131  0.81345  1
 H  H8  1  0.74443  0.70227  0.98499  1
 H  H9  1  0.19874  0.75825  0.90716  1
 H  H10  1  0.85704  0.27734  0.62729  1
 H  H11  1  0.80126  0.24175  0.09284  1
 H  H12  1  0.07474  0.20360  0.40407  1
 H  H13  1  0.92526  0.79640  0.59593  1
 H  H14  1  0.11734  0.10869  0.18655  1
 H  H15  1  0.19163  0.60911  0.15742  1
 H  H16  1  0.60237  0.77603  0.31436  1
