CIF file written using JARVIS-Tools package.
data_VOF3
_symmetry_space_group_name_H-M  'P2/c'
_cell_length_a       4.97908
_cell_length_b       5.44658
_cell_length_c       9.19851
_cell_angle_alpha    90.0017
_cell_angle_beta     83.034
_cell_angle_gamma    89.9955

_symmetry_Int_Tables_number  13
_chemical_formula_structural  VOF3
_chemical_formula_sum  V4O4F2
_cell_volume  247.61314678189248
_cell_formula_units_Z  4
loop_
  _symmetry_equiv_pos_site_id
 _symmetry_equiv_pos_as_xyz
 1  'x, y, z'
loop_
 _atom_site_type_symbol
 _atom_site_label
 _atom_site_symmetry_multiplicity
 _atom_site_fract_x
 _atom_site_fract_y
 _atom_site_fract_z
 _atom_site_fract_occupancy
 F  F1  1  0.32148  0.99153  0.89319  1
 F  F2  1  0.95112  0.52848  0.35131  1
 F  F3  1  0.10399  0.74758  0.11077  1
 F  F4  1  0.82150  0.00888  0.39323  1
 F  F5  1  0.67852  0.00847  0.10681  1
 F  F6  1  0.89601  0.25242  0.88923  1
 F  F7  1  0.54897  0.52804  0.14864  1
 F  F8  1  0.45103  0.47196  0.85136  1
 F  F9  1  0.39632  0.74777  0.38900  1
 F  F10  1  0.04888  0.47152  0.64869  1
 F  F11  1  0.17850  0.99112  0.60677  1
 F  F12  1  0.60368  0.25223  0.61100  1
 O  O1  1  0.13041  0.22789  0.12875  1
 O  O2  1  0.36942  0.22805  0.37141  1
 O  O3  1  0.63058  0.77195  0.62859  1
 O  O4  1  0.86959  0.77211  0.87125  1
 V  V1  1  0.00000  0.00000  0.00000  1
 V  V2  1  0.24999  0.42256  0.25001  1
 V  V3  1  0.50000  0.00000  0.50000  1
 V  V4  1  0.75001  0.57744  0.74999  1
