CIF file written using JARVIS-Tools package.
data_ZnPtF6
_symmetry_space_group_name_H-M  'R-3'
_cell_length_a       5.46277
_cell_length_b       5.46276
_cell_length_c       5.46277
_cell_angle_alpha    54.1502
_cell_angle_beta     54.1502
_cell_angle_gamma    54.1502

_symmetry_Int_Tables_number  148
_chemical_formula_structural  ZnPtF6
_chemical_formula_sum  ZnPtF6
_cell_volume  99.52991248561693
_cell_formula_units_Z  1
loop_
  _symmetry_equiv_pos_site_id
 _symmetry_equiv_pos_as_xyz
 1  'x, y, z'
loop_
 _atom_site_type_symbol
 _atom_site_label
 _atom_site_symmetry_multiplicity
 _atom_site_fract_x
 _atom_site_fract_y
 _atom_site_fract_z
 _atom_site_fract_occupancy
 F  F1  1  0.40263  0.08594  0.75797  1
 F  F2  1  0.08594  0.75797  0.40263  1
 F  F3  1  0.24203  0.59737  0.91406  1
 F  F4  1  0.91406  0.24203  0.59737  1
 F  F5  1  0.59737  0.91406  0.24203  1
 F  F6  1  0.75797  0.40263  0.08594  1
 Pt  Pt1  1  0.00000  0.00000  0.00000  1
 Zn  Zn1  1  0.50000  0.50000  0.50000  1
