CIF file written using JARVIS-Tools package.
data_SbClF8
_symmetry_space_group_name_H-M  'P-1'
_cell_length_a       5.09857
_cell_length_b       5.59992
_cell_length_c       10.3031
_cell_angle_alpha    88.7207
_cell_angle_beta     94.8848
_cell_angle_gamma    86.8416

_symmetry_Int_Tables_number  2
_chemical_formula_structural  SbClF8
_chemical_formula_sum  Sb2Cl2F6
_cell_volume  292.5475584331662
_cell_formula_units_Z  2
loop_
  _symmetry_equiv_pos_site_id
 _symmetry_equiv_pos_as_xyz
 1  'x, y, z'
loop_
 _atom_site_type_symbol
 _atom_site_label
 _atom_site_symmetry_multiplicity
 _atom_site_fract_x
 _atom_site_fract_y
 _atom_site_fract_z
 _atom_site_fract_occupancy
 Cl  Cl1  1  0.57486  0.39400  0.74900  1
 Cl  Cl2  1  0.42514  0.60600  0.25100  1
 F  F1  1  0.12063  0.78823  0.36406  1
 F  F2  1  0.71903  0.95488  0.10687  1
 F  F3  1  0.33172  0.95866  0.60045  1
 F  F4  1  0.66828  0.04134  0.39955  1
 F  F5  1  0.62620  0.47283  0.15956  1
 F  F6  1  0.37380  0.52717  0.84044  1
 F  F7  1  0.60237  0.54487  0.38601  1
 F  F8  1  0.39763  0.45513  0.61399  1
 F  F9  1  0.82938  0.30834  0.93259  1
 F  F10  1  0.17062  0.69166  0.06741  1
 F  F11  1  0.87937  0.21177  0.63594  1
 F  F12  1  0.17924  0.16354  0.13779  1
 F  F13  1  0.82076  0.83646  0.86221  1
 F  F14  1  0.11464  0.27154  0.41094  1
 F  F15  1  0.88536  0.72846  0.58906  1
 F  F16  1  0.28097  0.04512  0.89313  1
 Sb  Sb1  1  0.00000  0.00000  0.00000  1
 Sb  Sb2  1  0.00000  -0.00000  0.50000  1
