CIF file written using JARVIS-Tools package.
data_AlH3O3
_symmetry_space_group_name_H-M  'P-1'
_cell_length_a       6.77996
_cell_length_b       7.41766
_cell_length_c       8.09297
_cell_angle_alpha    111.778
_cell_angle_beta     141.179
_cell_angle_gamma    88.6068

_symmetry_Int_Tables_number  2
_chemical_formula_structural  AlH3O3
_chemical_formula_sum  Al4H2O2
_cell_volume  211.0153749524022
_cell_formula_units_Z  4
loop_
  _symmetry_equiv_pos_site_id
 _symmetry_equiv_pos_as_xyz
 1  'x, y, z'
loop_
 _atom_site_type_symbol
 _atom_site_label
 _atom_site_symmetry_multiplicity
 _atom_site_fract_x
 _atom_site_fract_y
 _atom_site_fract_z
 _atom_site_fract_occupancy
 Al  Al1  1  0.45348  0.83650  0.28892  1
 Al  Al2  1  0.50881  0.16580  0.68106  1
 Al  Al3  1  0.97221  0.67153  0.63892  1
 Al  Al4  1  0.99009  0.33075  0.33106  1
 H  H1  1  0.80857  0.28654  0.50998  1
 H  H2  1  0.05083  0.05712  0.85844  1
 H  H3  1  0.58213  0.53589  0.90977  1
 H  H4  1  0.38016  0.46641  0.06022  1
 H  H5  1  0.15366  0.71574  0.45994  1
 H  H6  1  0.91146  0.94517  0.11154  1
 H  H7  1  0.34620  0.17152  0.29563  1
 H  H8  1  0.61602  0.83075  0.67430  1
 H  H9  1  0.65821  0.90966  0.15182  1
 H  H10  1  0.17099  0.40293  0.15785  1
 H  H11  1  0.79130  0.59936  0.81211  1
 H  H12  1  0.30410  0.09261  0.81816  1
 O  O1  1  0.01071  0.28431  0.08847  1
 O  O2  1  0.95929  0.94320  0.67525  1
 O  O3  1  0.00299  0.05909  0.29473  1
 O  O4  1  0.46122  0.56315  0.24276  1
 O  O5  1  0.50106  0.43914  0.72722  1
 O  O6  1  0.43427  0.86845  0.52403  1
 O  O7  1  0.52801  0.13385  0.44595  1
 O  O8  1  0.45435  0.81207  0.05442  1
 O  O9  1  0.50794  0.19022  0.91555  1
 O  O10  1  0.02420  0.61256  0.42955  1
 O  O11  1  0.93807  0.38973  0.54041  1
 O  O12  1  0.95158  0.71798  0.88150  1
