CIF file written using JARVIS-Tools package.
data_Na4SnS4
_symmetry_space_group_name_H-M  'P-42_1c'
_cell_length_a       7.8246
_cell_length_b       7.8246
_cell_length_c       6.97186
_cell_angle_alpha    90
_cell_angle_beta     90
_cell_angle_gamma    90

_symmetry_Int_Tables_number  114
_chemical_formula_structural  Na4SnS4
_chemical_formula_sum  Na8Sn2S8
_cell_volume  426.8472519267988
_cell_formula_units_Z  2
loop_
  _symmetry_equiv_pos_site_id
 _symmetry_equiv_pos_as_xyz
 1  'x, y, z'
loop_
 _atom_site_type_symbol
 _atom_site_label
 _atom_site_symmetry_multiplicity
 _atom_site_fract_x
 _atom_site_fract_y
 _atom_site_fract_z
 _atom_site_fract_occupancy
 Na  Na1  1  0.19678  0.40959  0.03083  1
 Na  Na2  1  0.59041  0.19678  0.96917  1
 Na  Na3  1  0.40959  0.80322  0.96917  1
 Na  Na4  1  0.80322  0.59041  0.03083  1
 Na  Na5  1  0.69678  0.09041  0.46917  1
 Na  Na6  1  0.30322  0.90959  0.46917  1
 Na  Na7  1  0.90959  0.69678  0.53083  1
 Na  Na8  1  0.09041  0.30322  0.53083  1
 S  S1  1  0.90412  0.24206  0.19069  1
 S  S2  1  0.75794  0.90412  0.80931  1
 S  S3  1  0.24206  0.09588  0.80931  1
 S  S4  1  0.09588  0.75794  0.19069  1
 S  S5  1  0.40412  0.25794  0.30931  1
 S  S6  1  0.25794  0.59588  0.69069  1
 S  S7  1  0.59588  0.74206  0.30931  1
 S  S8  1  0.74206  0.40412  0.69069  1
 Sn  Sn1  1  0.00000  0.00000  0.00000  1
 Sn  Sn2  1  0.50000  0.50000  0.50000  1
