CIF file written using JARVIS-Tools package.
data_Al2SiO5
_symmetry_space_group_name_H-M  'C2/c'
_cell_length_a       4.71719
_cell_length_b       5.29752
_cell_length_c       6.6752
_cell_angle_alpha    109.473
_cell_angle_beta     90
_cell_angle_gamma    116.438

_symmetry_Int_Tables_number  15
_chemical_formula_structural  Al2SiO5
_chemical_formula_sum  Al4Si2O0
_cell_volume  138.62676655744193
_cell_formula_units_Z  2
loop_
  _symmetry_equiv_pos_site_id
 _symmetry_equiv_pos_as_xyz
 1  'x, y, z'
loop_
 _atom_site_type_symbol
 _atom_site_label
 _atom_site_symmetry_multiplicity
 _atom_site_fract_x
 _atom_site_fract_y
 _atom_site_fract_z
 _atom_site_fract_occupancy
 Al  Al1  1  0.87563  0.23239  0.27230  1
 Al  Al2  1  0.14324  0.76761  0.22770  1
 Al  Al3  1  0.85676  0.23239  0.77230  1
 Al  Al4  1  0.12437  0.76761  0.72770  1
 O  O1  1  0.31220  0.50000  0.75000  1
 O  O2  1  0.68780  0.50000  0.25000  1
 O  O3  1  0.90790  0.66331  0.95217  1
 O  O4  1  0.74459  0.33669  0.54783  1
 O  O5  1  0.09210  0.33669  0.04783  1
 O  O6  1  0.25541  0.66331  0.45217  1
 O  O7  1  0.53677  0.86063  0.14539  1
 O  O8  1  0.17615  0.13937  0.35461  1
 O  O9  1  0.46323  0.13937  0.85461  1
 O  O10  1  0.82385  0.86063  0.64539  1
 Si  Si1  1  0.50000  0.50000  0.50000  1
 Si  Si2  1  0.50000  0.50000  0.00000  1
