CIF file written using JARVIS-Tools package.
data_CdI2
_symmetry_space_group_name_H-M  'P3m1'
_cell_length_a       4.28695
_cell_length_b       4.28695
_cell_length_c       61.9084
_cell_angle_alpha    90
_cell_angle_beta     90
_cell_angle_gamma    120

_symmetry_Int_Tables_number  156
_chemical_formula_structural  CdI2
_chemical_formula_sum  Cd9I8
_cell_volume  985.318527820864
_cell_formula_units_Z  9
loop_
  _symmetry_equiv_pos_site_id
 _symmetry_equiv_pos_as_xyz
 1  'x, y, z'
loop_
 _atom_site_type_symbol
 _atom_site_label
 _atom_site_symmetry_multiplicity
 _atom_site_fract_x
 _atom_site_fract_y
 _atom_site_fract_z
 _atom_site_fract_occupancy
 Cd  Cd1  1  0.66667  0.33333  0.58334  1
 Cd  Cd2  1  0.66667  0.33333  0.36107  1
 Cd  Cd3  1  0.00000  0.00000  0.47221  1
 Cd  Cd4  1  0.00000  0.00000  0.91663  1
 Cd  Cd5  1  0.66667  0.33333  0.02777  1
 Cd  Cd6  1  0.00000  0.00000  0.13889  1
 Cd  Cd7  1  0.66667  0.33333  0.69443  1
 Cd  Cd8  1  0.00000  0.00000  0.80556  1
 Cd  Cd9  1  0.66667  0.33333  0.25002  1
 I  I1  1  0.33333  0.66667  0.61135  1
 I  I2  1  0.00000  0.00000  0.55534  1
 I  I3  1  0.33333  0.66667  0.72245  1
 I  I4  1  0.00000  0.00000  0.22202  1
 I  I5  1  0.33333  0.66667  0.27803  1
 I  I6  1  0.33333  0.66667  0.83357  1
 I  I7  1  0.33333  0.66667  0.05580  1
 I  I8  1  0.00000  0.00000  0.66644  1
 I  I9  1  0.33333  0.66667  0.16691  1
 I  I10  1  0.00000  0.00000  -0.00022  1
 I  I11  1  0.66667  0.33333  0.44422  1
 I  I12  1  0.66667  0.33333  0.88864  1
 I  I13  1  0.66667  0.33333  0.77757  1
 I  I14  1  0.33333  0.66667  0.38910  1
 I  I15  1  0.00000  0.00000  0.33309  1
 I  I16  1  0.66667  0.33333  0.11090  1
 I  I17  1  0.33333  0.66667  0.94466  1
 I  I18  1  0.33333  0.66667  0.50023  1
