CIF file written using JARVIS-Tools package.
data_Co3NiO8
_symmetry_space_group_name_H-M  'R-3m'
_cell_length_a       5.65518
_cell_length_b       5.65518
_cell_length_c       5.41715
_cell_angle_alpha    58.5354
_cell_angle_beta     58.5355
_cell_angle_gamma    60

_symmetry_Int_Tables_number  166
_chemical_formula_structural  Co3NiO8
_chemical_formula_sum  Co3NiO8
_cell_volume  119.72157977473596
_cell_formula_units_Z  1
loop_
  _symmetry_equiv_pos_site_id
 _symmetry_equiv_pos_as_xyz
 1  'x, y, z'
loop_
 _atom_site_type_symbol
 _atom_site_label
 _atom_site_symmetry_multiplicity
 _atom_site_fract_x
 _atom_site_fract_y
 _atom_site_fract_z
 _atom_site_fract_occupancy
 Co  Co1  1  0.50000  -0.00000  0.00000  1
 Co  Co2  1  0.00000  0.50000  -0.00000  1
 Co  Co3  1  0.50000  0.50000  0.00000  1
 Ni  Ni1  1  0.00000  0.00000  0.00000  1
 O  O1  1  0.23911  0.23911  0.78499  1
 O  O2  1  0.73679  0.23911  0.78499  1
 O  O3  1  0.23911  0.73679  0.78499  1
 O  O4  1  0.73739  0.73739  0.78784  1
 O  O5  1  0.26261  0.26261  0.21216  1
 O  O6  1  0.76089  0.26321  0.21501  1
 O  O7  1  0.26321  0.76089  0.21501  1
 O  O8  1  0.76089  0.76089  0.21501  1
