CIF file written using JARVIS-Tools package.
data_AlB3H12
_symmetry_space_group_name_H-M  'Pna2_1'
_cell_length_a       5.90282
_cell_length_b       5.90274
_cell_length_c       17.4891
_cell_angle_alpha    90
_cell_angle_beta     90
_cell_angle_gamma    90

_symmetry_Int_Tables_number  33
_chemical_formula_structural  AlB3H12
_chemical_formula_sum  Al4B2H48
_cell_volume  609.3703539606532
_cell_formula_units_Z  4
loop_
  _symmetry_equiv_pos_site_id
 _symmetry_equiv_pos_as_xyz
 1  'x, y, z'
loop_
 _atom_site_type_symbol
 _atom_site_label
 _atom_site_symmetry_multiplicity
 _atom_site_fract_x
 _atom_site_fract_y
 _atom_site_fract_z
 _atom_site_fract_occupancy
 Al  Al1  1  0.79870  0.83346  0.13804  1
 Al  Al2  1  0.29870  0.16654  0.86196  1
 Al  Al3  1  0.79870  0.66654  0.63804  1
 Al  Al4  1  0.29870  0.33346  0.36196  1
 B  B1  1  0.90047  0.00863  0.24097  1
 B  B2  1  0.50652  0.53929  0.57887  1
 B  B3  1  0.90047  0.49137  0.74097  1
 B  B4  1  0.50652  0.96071  0.07887  1
 B  B5  1  0.00652  0.03929  0.92113  1
 B  B6  1  0.00652  0.46071  0.42113  1
 B  B7  1  0.46453  0.45635  0.90885  1
 B  B8  1  0.96453  0.54365  0.09115  1
 B  B9  1  0.46453  0.04365  0.40885  1
 B  B10  1  0.40047  0.99137  0.75903  1
 B  B11  1  0.40047  0.50863  0.25903  1
 B  B12  1  0.96453  0.95635  0.59115  1
 H  H1  1  0.22681  0.38267  0.26423  1
 H  H2  1  0.01260  0.22655  0.88505  1
 H  H3  1  0.15224  0.03048  0.59932  1
 H  H4  1  0.19257  0.93221  0.91427  1
 H  H5  1  0.51636  0.50297  0.32033  1
 H  H6  1  0.83338  0.30051  0.74814  1
 H  H7  1  0.69257  0.06779  0.08573  1
 H  H8  1  0.72681  0.88267  0.23577  1
 H  H9  1  0.01260  0.27345  0.38505  1
 H  H10  1  0.33077  0.55069  0.94983  1
 H  H11  1  0.86584  0.57544  0.38996  1
 H  H12  1  0.36584  0.07544  0.11004  1
 H  H13  1  0.98923  0.08761  0.98746  1
 H  H14  1  0.65224  0.96952  0.40068  1
 H  H15  1  0.51640  0.07547  0.71028  1
 H  H16  1  0.38042  0.05028  0.34164  1
 H  H17  1  0.01640  0.57547  0.78972  1
 H  H18  1  0.33338  0.80051  0.75186  1
 H  H19  1  0.33077  0.94931  0.44983  1
 H  H20  1  0.83077  0.05069  0.55017  1
 H  H21  1  0.65224  0.53048  0.90068  1
 H  H22  1  0.33338  0.69949  0.25186  1
 H  H23  1  0.86584  0.92456  0.88996  1
 H  H24  1  0.88042  0.94972  0.65836  1
 H  H25  1  0.83338  0.19949  0.24814  1
 H  H26  1  0.01636  0.00297  0.17966  1
 H  H27  1  0.49146  0.24444  0.43409  1
 H  H28  1  0.49146  0.25556  0.93409  1
 H  H29  1  0.51640  0.42453  0.21028  1
 H  H30  1  0.36584  0.42456  0.61004  1
 H  H31  1  0.48923  0.91239  0.01254  1
 H  H32  1  0.69257  0.43221  0.58573  1
 H  H33  1  0.98923  0.41239  0.48746  1
 H  H34  1  0.48923  0.58761  0.51254  1
 H  H35  1  0.83077  0.44931  0.05017  1
 H  H36  1  0.01636  0.49703  0.67966  1
 H  H37  1  0.99146  0.75556  0.56591  1
 H  H38  1  0.51260  0.77345  0.11495  1
 H  H39  1  0.72681  0.61733  0.73577  1
 H  H40  1  0.51260  0.72655  0.61495  1
 H  H41  1  0.51636  0.99703  0.82034  1
 H  H42  1  0.38042  0.44972  0.84164  1
 H  H43  1  0.22681  0.11733  0.76423  1
 H  H44  1  0.88042  0.55028  0.15836  1
 H  H45  1  0.19257  0.56779  0.41427  1
 H  H46  1  0.15224  0.46952  0.09932  1
 H  H47  1  0.01640  0.92453  0.28972  1
 H  H48  1  0.99146  0.74444  0.06591  1
