CIF file written using JARVIS-Tools package.
data_BH11C4NClF4
_symmetry_space_group_name_H-M  'P2_1/m'
_cell_length_a       5.89658
_cell_length_b       7.57964
_cell_length_c       9.16704
_cell_angle_alpha    90
_cell_angle_beta     103.406
_cell_angle_gamma    90

_symmetry_Int_Tables_number  11
_chemical_formula_structural  BH11C4NClF4
_chemical_formula_sum  B2H22C8N2Cl2F8
_cell_volume  398.54692480362667
_cell_formula_units_Z  2
loop_
  _symmetry_equiv_pos_site_id
 _symmetry_equiv_pos_as_xyz
 1  'x, y, z'
loop_
 _atom_site_type_symbol
 _atom_site_label
 _atom_site_symmetry_multiplicity
 _atom_site_fract_x
 _atom_site_fract_y
 _atom_site_fract_z
 _atom_site_fract_occupancy
 B  B1  1  0.05889  0.75000  0.75726  1
 B  B2  1  0.94111  0.25000  0.24274  1
 C  C1  1  0.35533  0.25000  0.60670  1
 C  C2  1  0.62671  0.41227  0.81074  1
 C  C3  1  0.71048  0.75000  0.14200  1
 C  C4  1  0.37329  0.58773  0.18926  1
 C  C5  1  0.62671  0.08773  0.81074  1
 C  C6  1  0.64467  0.75000  0.39330  1
 C  C7  1  0.28952  0.25000  0.85800  1
 C  C8  1  0.37329  0.91227  0.18926  1
 Cl  Cl1  1  0.44442  0.75000  0.51063  1
 Cl  Cl2  1  0.55558  0.25000  0.48937  1
 F  F1  1  0.70400  0.25000  0.15978  1
 F  F2  1  0.91333  0.75000  0.85967  1
 F  F3  1  0.08667  0.25000  0.14033  1
 F  F4  1  0.29600  0.75000  0.84022  1
 F  F5  1  0.01960  0.59717  0.66606  1
 F  F6  1  0.01960  0.90283  0.66606  1
 F  F7  1  0.98040  0.40283  0.33394  1
 F  F8  1  0.98040  0.09717  0.33394  1
 H  H1  1  0.28841  0.59545  0.06972  1
 H  H2  1  0.24812  0.36941  0.58368  1
 H  H3  1  0.24318  0.58493  0.25704  1
 H  H4  1  0.75682  0.08493  0.74296  1
 H  H5  1  0.48476  0.47084  0.21290  1
 H  H6  1  0.51524  0.97084  0.78710  1
 H  H7  1  0.62645  0.75000  0.02244  1
 H  H8  1  0.18333  0.13103  0.82781  1
 H  H9  1  0.28841  0.90455  0.06972  1
 H  H10  1  0.37355  0.25000  0.97756  1
 H  H11  1  0.24318  0.91507  0.25704  1
 H  H12  1  0.75682  0.41507  0.74296  1
 H  H13  1  0.71159  0.40455  0.93028  1
 H  H14  1  0.81667  0.63103  0.17219  1
 H  H15  1  0.51524  0.52916  0.78710  1
 H  H16  1  0.24812  0.13059  0.58368  1
 H  H17  1  0.81667  0.86897  0.17219  1
 H  H18  1  0.71159  0.09545  0.93028  1
 H  H19  1  0.75188  0.63059  0.41632  1
 H  H20  1  0.75188  0.86941  0.41632  1
 H  H21  1  0.48476  0.02916  0.21290  1
 H  H22  1  0.18333  0.36897  0.82781  1
 N  N1  1  0.52195  0.75000  0.22881  1
 N  N2  1  0.47805  0.25000  0.77119  1
