CIF file written using JARVIS-Tools package.
data_KCuF3
_symmetry_space_group_name_H-M  'Pm-3m'
_cell_length_a       5.71318
_cell_length_b       5.71318
_cell_length_c       4.03991
_cell_angle_alpha    90
_cell_angle_beta     90
_cell_angle_gamma    90

_symmetry_Int_Tables_number  221
_chemical_formula_structural  KCuF3
_chemical_formula_sum  K2Cu2F6
_cell_volume  131.8646198987341
_cell_formula_units_Z  2
loop_
  _symmetry_equiv_pos_site_id
 _symmetry_equiv_pos_as_xyz
 1  'x, y, z'
loop_
 _atom_site_type_symbol
 _atom_site_label
 _atom_site_symmetry_multiplicity
 _atom_site_fract_x
 _atom_site_fract_y
 _atom_site_fract_z
 _atom_site_fract_occupancy
 Cu  Cu1  1  0.50000  0.00000  0.00000  1
 Cu  Cu2  1  0.00000  0.50000  0.00000  1
 F  F1  1  0.25000  0.75000  0.00000  1
 F  F2  1  0.75000  0.75000  0.00000  1
 F  F3  1  0.25000  0.25000  0.00000  1
 F  F4  1  0.75000  0.25000  0.00000  1
 F  F5  1  0.50000  0.00000  0.50000  1
 F  F6  1  0.00000  0.50000  0.50000  1
 K  K1  1  0.00000  0.00000  0.50000  1
 K  K2  1  0.50000  0.50000  0.50000  1
