CIF file written using JARVIS-Tools package.
data_SrH4O6
_symmetry_space_group_name_H-M  'C2/c'
_cell_length_a       5.82479
_cell_length_b       5.82479
_cell_length_c       6.02932
_cell_angle_alpha    91.2696
_cell_angle_beta     88.7304
_cell_angle_gamma    83.35

_symmetry_Int_Tables_number  15
_chemical_formula_structural  SrH4O6
_chemical_formula_sum  Sr2H8O2
_cell_volume  203.07461580473222
_cell_formula_units_Z  2
loop_
  _symmetry_equiv_pos_site_id
 _symmetry_equiv_pos_as_xyz
 1  'x, y, z'
loop_
 _atom_site_type_symbol
 _atom_site_label
 _atom_site_symmetry_multiplicity
 _atom_site_fract_x
 _atom_site_fract_y
 _atom_site_fract_z
 _atom_site_fract_occupancy
 H  H1  1  -0.01219  0.67912  0.24520  1
 H  H2  1  0.67913  -0.01224  0.25443  1
 H  H3  1  0.01224  0.32087  0.75443  1
 H  H4  1  0.32088  0.01219  0.74520  1
 H  H5  1  0.38732  0.70357  0.42637  1
 H  H6  1  0.29643  0.61268  0.92637  1
 H  H7  1  0.61273  0.29635  0.57327  1
 H  H8  1  0.70365  0.38727  0.07327  1
 O  O1  1  0.45894  0.09733  0.58004  1
 O  O2  1  0.90267  0.54106  0.08004  1
 O  O3  1  0.77177  0.06127  0.12123  1
 O  O4  1  0.93873  0.22823  0.62123  1
 O  O5  1  0.22827  0.93870  0.87842  1
 O  O6  1  0.06130  0.77173  0.37842  1
 O  O7  1  0.54108  0.90261  0.41959  1
 O  O8  1  0.74323  0.40248  0.56705  1
 O  O9  1  0.40253  0.74321  0.93261  1
 O  O10  1  0.09739  0.45892  0.91959  1
 O  O11  1  0.25679  0.59747  0.43261  1
 O  O12  1  0.59752  0.25677  0.06705  1
 Sr  Sr1  1  0.18768  0.18765  0.24982  1
 Sr  Sr2  1  0.81235  0.81232  0.74982  1
