CIF file written using JARVIS-Tools package.
data_SiO2
_symmetry_space_group_name_H-M  'R-3'
_cell_length_a       7.55615
_cell_length_b       7.55614
_cell_length_c       7.55614
_cell_angle_alpha    111.355
_cell_angle_beta     111.355
_cell_angle_gamma    111.355

_symmetry_Int_Tables_number  148
_chemical_formula_structural  SiO2
_chemical_formula_sum  Si6O2
_cell_volume  306.7756713845329
_cell_formula_units_Z  6
loop_
  _symmetry_equiv_pos_site_id
 _symmetry_equiv_pos_as_xyz
 1  'x, y, z'
loop_
 _atom_site_type_symbol
 _atom_site_label
 _atom_site_symmetry_multiplicity
 _atom_site_fract_x
 _atom_site_fract_y
 _atom_site_fract_z
 _atom_site_fract_occupancy
 O  O1  1  0.14732  0.83774  0.78372  1
 O  O2  1  0.55015  0.23928  0.00472  1
 O  O3  1  0.85268  0.16226  0.21628  1
 O  O4  1  0.23928  0.00472  0.55015  1
 O  O5  1  0.44985  0.76072  -0.00472  1
 O  O6  1  -0.00472  0.44985  0.76072  1
 O  O7  1  0.83774  0.78372  0.14732  1
 O  O8  1  0.16226  0.21628  0.85268  1
 O  O9  1  0.00472  0.55015  0.23928  1
 O  O10  1  0.21628  0.85268  0.16226  1
 O  O11  1  0.76072  -0.00472  0.44985  1
 O  O12  1  0.78372  0.14732  0.83774  1
 Si  Si1  1  0.07451  0.79789  0.27521  1
 Si  Si2  1  0.92549  0.20211  0.72479  1
 Si  Si3  1  0.27521  0.07451  0.79789  1
 Si  Si4  1  0.79789  0.27521  0.07451  1
 Si  Si5  1  0.72479  0.92549  0.20211  1
 Si  Si6  1  0.20211  0.72479  0.92549  1
