CIF file written using JARVIS-Tools package.
data_Mn3O4F2
_symmetry_space_group_name_H-M  'P4_2/mnm'
_cell_length_a       4.57414
_cell_length_b       4.57414
_cell_length_c       9.02154
_cell_angle_alpha    90
_cell_angle_beta     90
_cell_angle_gamma    90

_symmetry_Int_Tables_number  136
_chemical_formula_structural  Mn3O4F2
_chemical_formula_sum  Mn6O8F4
_cell_volume  188.7555863421725
_cell_formula_units_Z  2
loop_
  _symmetry_equiv_pos_site_id
 _symmetry_equiv_pos_as_xyz
 1  'x, y, z'
loop_
 _atom_site_type_symbol
 _atom_site_label
 _atom_site_symmetry_multiplicity
 _atom_site_fract_x
 _atom_site_fract_y
 _atom_site_fract_z
 _atom_site_fract_occupancy
 F  F1  1  0.81471  0.18529  0.00000  1
 F  F2  1  0.18529  0.81471  0.00000  1
 F  F3  1  0.68529  0.68529  0.50000  1
 F  F4  1  0.31471  0.31471  0.50000  1
 Mn  Mn1  1  0.50000  0.50000  0.68314  1
 Mn  Mn2  1  0.00000  0.00000  0.18314  1
 Mn  Mn3  1  0.50000  0.50000  0.00000  1
 Mn  Mn4  1  0.00000  0.00000  0.81686  1
 Mn  Mn5  1  0.00000  0.00000  0.50000  1
 Mn  Mn6  1  0.50000  0.50000  0.31686  1
 O  O1  1  0.80392  0.19608  0.66436  1
 O  O2  1  0.80392  0.19608  0.33564  1
 O  O3  1  0.69608  0.69608  0.16436  1
 O  O4  1  0.30392  0.30392  0.16436  1
 O  O5  1  0.19608  0.80392  0.66436  1
 O  O6  1  0.19608  0.80392  0.33564  1
 O  O7  1  0.30392  0.30392  0.83564  1
 O  O8  1  0.69608  0.69608  0.83564  1
