CIF file written using JARVIS-Tools package.
data_SrH2Se2O6
_symmetry_space_group_name_H-M  'P-1'
_cell_length_a       5.93245
_cell_length_b       7.29313
_cell_length_c       7.68902
_cell_angle_alpha    95.6716
_cell_angle_beta     104.698
_cell_angle_gamma    106.419

_symmetry_Int_Tables_number  2
_chemical_formula_structural  SrH2Se2O6
_chemical_formula_sum  Sr2H4Se4O2
_cell_volume  303.4071340651271
_cell_formula_units_Z  2
loop_
  _symmetry_equiv_pos_site_id
 _symmetry_equiv_pos_as_xyz
 1  'x, y, z'
loop_
 _atom_site_type_symbol
 _atom_site_label
 _atom_site_symmetry_multiplicity
 _atom_site_fract_x
 _atom_site_fract_y
 _atom_site_fract_z
 _atom_site_fract_occupancy
 H  H1  1  0.06647  0.95527  0.30348  1
 H  H2  1  0.24746  0.96471  0.05614  1
 H  H3  1  0.75254  0.03529  0.94386  1
 H  H4  1  0.93353  0.04473  0.69652  1
 O  O1  1  0.97190  0.58888  0.67840  1
 O  O2  1  0.98313  0.82703  0.33548  1
 O  O3  1  0.01687  0.17297  0.66452  1
 O  O4  1  0.02810  0.41112  0.32160  1
 O  O5  1  0.45114  0.44322  0.69437  1
 O  O6  1  0.23788  0.86559  0.95081  1
 O  O7  1  0.56927  0.91929  0.35207  1
 O  O8  1  0.43073  0.08071  0.64793  1
 O  O9  1  0.76212  0.13441  0.04919  1
 O  O10  1  0.54886  0.55678  0.30563  1
 O  O11  1  0.22352  0.14092  0.21615  1
 O  O12  1  0.77648  0.85908  0.78385  1
 Se  Se1  1  0.92312  0.69768  0.86172  1
 Se  Se2  1  0.64883  0.76210  0.22300  1
 Se  Se3  1  0.35117  0.23790  0.77700  1
 Se  Se4  1  0.07688  0.30232  0.13828  1
 Sr  Sr1  1  0.66811  0.28274  0.44859  1
 Sr  Sr2  1  0.33189  0.71726  0.55141  1
