CIF file written using JARVIS-Tools package.
data_AlH3O3
_symmetry_space_group_name_H-M  'Cm'
_cell_length_a       5.12057
_cell_length_b       4.90998
_cell_length_c       4.67459
_cell_angle_alpha    89.5437
_cell_angle_beta     90.2187
_cell_angle_gamma    118.649

_symmetry_Int_Tables_number  8
_chemical_formula_structural  AlH3O3
_chemical_formula_sum  Al2H6O6
_cell_volume  103.13631102552219
_cell_formula_units_Z  2
loop_
  _symmetry_equiv_pos_site_id
 _symmetry_equiv_pos_as_xyz
 1  'x, y, z'
loop_
 _atom_site_type_symbol
 _atom_site_label
 _atom_site_symmetry_multiplicity
 _atom_site_fract_x
 _atom_site_fract_y
 _atom_site_fract_z
 _atom_site_fract_occupancy
 Al  Al1  1  0.32598  0.68380  0.00182  1
 Al  Al2  1  0.67402  0.35782  0.00182  1
 H  H1  1  0.78000  0.96760  0.72215  1
 H  H2  1  0.22000  0.18760  0.72215  1
 H  H3  1  -0.00000  0.60359  0.58059  1
 H  H4  1  0.44699  0.01917  0.41589  1
 H  H5  1  0.55301  0.57218  0.41589  1
 H  H6  1  0.00000  0.17900  0.24683  1
 O  O1  1  0.61819  0.01294  0.76604  1
 O  O2  1  0.38181  0.39475  0.76604  1
 O  O3  1  -0.00000  0.67199  0.77893  1
 O  O4  1  0.37070  0.02364  0.22159  1
 O  O5  1  0.62930  0.65294  0.22159  1
 O  O6  1  0.00000  0.37768  0.21795  1
