CIF file written using JARVIS-Tools package.
data_Sn2OF2
_symmetry_space_group_name_H-M  'C2/m'
_cell_length_a       5.19655
_cell_length_b       6.09906
_cell_length_c       6.09906
_cell_angle_alpha    81.2933
_cell_angle_beta     83.9442
_cell_angle_gamma    83.9441

_symmetry_Int_Tables_number  12
_chemical_formula_structural  Sn2OF2
_chemical_formula_sum  Sn4O2F4
_cell_volume  189.22028387288415
_cell_formula_units_Z  2
loop_
  _symmetry_equiv_pos_site_id
 _symmetry_equiv_pos_as_xyz
 1  'x, y, z'
loop_
 _atom_site_type_symbol
 _atom_site_label
 _atom_site_symmetry_multiplicity
 _atom_site_fract_x
 _atom_site_fract_y
 _atom_site_fract_z
 _atom_site_fract_occupancy
 F  F1  1  0.20111  0.13754  0.51445  1
 F  F2  1  0.79889  0.86246  0.48555  1
 F  F3  1  0.20111  0.51445  0.13754  1
 F  F4  1  0.79889  0.48555  0.86246  1
 O  O1  1  0.30513  0.60987  0.60987  1
 O  O2  1  0.69487  0.39013  0.39013  1
 Sn  Sn1  1  0.50000  0.70945  0.29055  1
 Sn  Sn2  1  0.50000  0.29055  0.70945  1
 Sn  Sn3  1  0.01016  0.78694  0.78694  1
 Sn  Sn4  1  0.98984  0.21306  0.21306  1
