CIF file written using JARVIS-Tools package.
data_TiZnO2
_symmetry_space_group_name_H-M  'P-1'
_cell_length_a       2.90074
_cell_length_b       7.57111
_cell_length_c       8.52452
_cell_angle_alpha    96.347
_cell_angle_beta     100.647
_cell_angle_gamma    94.5978

_symmetry_Int_Tables_number  2
_chemical_formula_structural  TiZnO2
_chemical_formula_sum  Ti4Zn4O8
_cell_volume  181.89150967631696
_cell_formula_units_Z  4
loop_
  _symmetry_equiv_pos_site_id
 _symmetry_equiv_pos_as_xyz
 1  'x, y, z'
loop_
 _atom_site_type_symbol
 _atom_site_label
 _atom_site_symmetry_multiplicity
 _atom_site_fract_x
 _atom_site_fract_y
 _atom_site_fract_z
 _atom_site_fract_occupancy
 O  O1  1  0.49918  0.25838  0.59780  1
 O  O2  1  0.22662  0.63882  0.81578  1
 O  O3  1  0.79747  0.38126  0.21243  1
 O  O4  1  0.52495  0.76169  0.43041  1
 O  O5  1  0.69635  0.89740  0.71394  1
 O  O6  1  0.83799  0.71012  0.15215  1
 O  O7  1  0.32769  0.12268  0.31426  1
 O  O8  1  0.18610  0.30997  0.87605  1
 Ti  Ti1  1  0.10283  0.70823  0.58756  1
 Ti  Ti2  1  0.35860  0.56597  0.25242  1
 Ti  Ti3  1  0.66548  0.45412  0.77578  1
 Ti  Ti4  1  0.92129  0.31184  0.44065  1
 Zn  Zn1  1  0.79572  0.93721  0.29689  1
 Zn  Zn2  1  0.22828  0.08286  0.73129  1
 Zn  Zn3  1  0.38363  0.15774  0.06700  1
 Zn  Zn4  1  0.64021  0.86236  0.96120  1
