CIF file written using JARVIS-Tools package.
data_AlBiO3
_symmetry_space_group_name_H-M  'P2_1/c'
_cell_length_a       7.21343
_cell_length_b       5.06929
_cell_length_c       8.3125
_cell_angle_alpha    90
_cell_angle_beta     115.207
_cell_angle_gamma    90

_symmetry_Int_Tables_number  14
_chemical_formula_structural  AlBiO3
_chemical_formula_sum  Al4Bi4O2
_cell_volume  275.0180595226954
_cell_formula_units_Z  4
loop_
  _symmetry_equiv_pos_site_id
 _symmetry_equiv_pos_as_xyz
 1  'x, y, z'
loop_
 _atom_site_type_symbol
 _atom_site_label
 _atom_site_symmetry_multiplicity
 _atom_site_fract_x
 _atom_site_fract_y
 _atom_site_fract_z
 _atom_site_fract_occupancy
 Al  Al1  1  0.09182  0.73952  0.50807  1
 Al  Al2  1  0.09182  0.76048  0.00807  1
 Al  Al3  1  0.90818  0.23952  0.99193  1
 Al  Al4  1  0.90818  0.26048  0.49193  1
 Bi  Bi1  1  0.29797  0.23444  0.88085  1
 Bi  Bi2  1  0.29797  0.26556  0.38085  1
 Bi  Bi3  1  0.70203  0.73444  0.61915  1
 Bi  Bi4  1  0.70203  0.76556  0.11915  1
 O  O1  1  0.02314  0.54707  0.66143  1
 O  O2  1  0.82966  0.92208  0.40012  1
 O  O3  1  0.02314  0.95293  0.16143  1
 O  O4  1  0.34446  0.63904  0.52908  1
 O  O5  1  0.17034  0.07792  0.59988  1
 O  O6  1  0.65554  0.36096  0.47092  1
 O  O7  1  0.34446  0.86096  0.02908  1
 O  O8  1  0.82966  0.57792  0.90012  1
 O  O9  1  0.17034  0.42208  0.09988  1
 O  O10  1  0.97686  0.04707  0.83857  1
 O  O11  1  0.65554  0.13904  0.97092  1
 O  O12  1  0.97686  0.45293  0.33857  1
