CIF file written using JARVIS-Tools package.
data_H2SO4
_symmetry_space_group_name_H-M  'Cc'
_cell_length_a       4.70204
_cell_length_b       4.70204
_cell_length_c       8.56787
_cell_angle_alpha    65.2212
_cell_angle_beta     114.779
_cell_angle_gamma    121.915

_symmetry_Int_Tables_number  9
_chemical_formula_structural  H2SO4
_chemical_formula_sum  H4S2O8
_cell_volume  141.11192402015487
_cell_formula_units_Z  2
loop_
  _symmetry_equiv_pos_site_id
 _symmetry_equiv_pos_as_xyz
 1  'x, y, z'
loop_
 _atom_site_type_symbol
 _atom_site_label
 _atom_site_symmetry_multiplicity
 _atom_site_fract_x
 _atom_site_fract_y
 _atom_site_fract_z
 _atom_site_fract_occupancy
 H  H1  1  0.71719  0.53778  0.60465  1
 H  H2  1  0.46222  0.28281  0.10465  1
 H  H3  1  0.29524  0.75893  0.88380  1
 H  H4  1  0.24107  0.70476  0.38380  1
 O  O1  1  0.73661  0.71230  0.88260  1
 O  O2  1  0.68758  0.75307  0.57653  1
 O  O3  1  0.24693  0.31242  0.07653  1
 O  O4  1  0.28770  0.26339  0.38260  1
 O  O5  1  0.26110  0.95927  0.78731  1
 O  O6  1  0.91966  0.27735  0.65953  1
 O  O7  1  0.72265  0.08034  0.15953  1
 O  O8  1  0.04073  0.73890  0.28731  1
 S  S1  1  0.88824  0.93018  0.73582  1
 S  S2  1  0.06982  0.11176  0.23582  1
