CIF file written using JARVIS-Tools package.
data_NbOF3
_symmetry_space_group_name_H-M  'P-1'
_cell_length_a       8.86585
_cell_length_b       5.28561
_cell_length_c       8.08295
_cell_angle_alpha    98.8434
_cell_angle_beta     103.929
_cell_angle_gamma    118.932

_symmetry_Int_Tables_number  2
_chemical_formula_structural  NbOF3
_chemical_formula_sum  Nb4O4F2
_cell_volume  305.04793707301013
_cell_formula_units_Z  4
loop_
  _symmetry_equiv_pos_site_id
 _symmetry_equiv_pos_as_xyz
 1  'x, y, z'
loop_
 _atom_site_type_symbol
 _atom_site_label
 _atom_site_symmetry_multiplicity
 _atom_site_fract_x
 _atom_site_fract_y
 _atom_site_fract_z
 _atom_site_fract_occupancy
 F  F1  1  0.69848  0.05329  0.46768  1
 F  F2  1  0.05071  0.51034  0.65875  1
 F  F3  1  0.82634  0.67945  0.05666  1
 F  F4  1  0.04836  0.10884  0.37952  1
 F  F5  1  0.30152  0.94671  0.53232  1
 F  F6  1  0.17366  0.32055  0.94334  1
 F  F7  1  0.54041  0.75498  0.08236  1
 F  F8  1  0.45959  0.24502  0.91764  1
 F  F9  1  0.24794  0.95399  0.11463  1
 F  F10  1  0.94929  0.48966  0.34125  1
 F  F11  1  0.95164  0.89116  0.62048  1
 F  F12  1  0.75206  0.04601  0.88537  1
 Nb  Nb1  1  0.78988  0.47067  0.48543  1
 Nb  Nb2  1  0.63282  0.62756  0.86407  1
 Nb  Nb3  1  0.36718  0.37244  0.13593  1
 Nb  Nb4  1  0.21012  0.52933  0.51457  1
 O  O1  1  0.60845  0.43860  0.30087  1
 O  O2  1  0.67917  0.47077  0.67834  1
 O  O3  1  0.32083  0.52923  0.32166  1
 O  O4  1  0.39155  0.56140  0.69913  1
