CIF file written using JARVIS-Tools package.
data_Fe3O4F2
_symmetry_space_group_name_H-M  'P2_1/c'
_cell_length_a       4.50571
_cell_length_b       4.51169
_cell_length_c       9.97791
_cell_angle_alpha    90
_cell_angle_beta     116.457
_cell_angle_gamma    90

_symmetry_Int_Tables_number  14
_chemical_formula_structural  Fe3O4F2
_chemical_formula_sum  Fe6O8F4
_cell_volume  181.59255542349067
_cell_formula_units_Z  2
loop_
  _symmetry_equiv_pos_site_id
 _symmetry_equiv_pos_as_xyz
 1  'x, y, z'
loop_
 _atom_site_type_symbol
 _atom_site_label
 _atom_site_symmetry_multiplicity
 _atom_site_fract_x
 _atom_site_fract_y
 _atom_site_fract_z
 _atom_site_fract_occupancy
 F  F1  1  0.61906  0.76746  0.82675  1
 F  F2  1  0.38094  0.23254  0.17325  1
 F  F3  1  0.38094  0.26746  0.67325  1
 F  F4  1  0.61906  0.73254  0.32675  1
 Fe  Fe1  1  -0.00000  0.50000  0.50000  1
 Fe  Fe2  1  0.00000  0.00000  0.00000  1
 Fe  Fe3  1  0.69048  0.52657  0.15343  1
 Fe  Fe4  1  0.69048  0.97343  0.65343  1
 Fe  Fe5  1  0.30952  0.02657  0.34657  1
 Fe  Fe6  1  0.30952  0.47343  0.84657  1
 O  O1  1  0.29484  0.78960  0.50137  1
 O  O2  1  0.97894  0.82631  0.16668  1
 O  O3  1  0.70516  0.28960  0.99863  1
 O  O4  1  0.29484  0.71040  0.00137  1
 O  O5  1  0.02106  0.17369  0.83332  1
 O  O6  1  0.70516  0.21040  0.49863  1
 O  O7  1  0.97894  0.67369  0.66668  1
 O  O8  1  0.02106  0.32631  0.33332  1
