CIF file written using JARVIS-Tools package.
data_GaTeCl
_symmetry_space_group_name_H-M  'Pnnm'
_cell_length_a       4.13276
_cell_length_b       5.89077
_cell_length_c       14.3861
_cell_angle_alpha    90
_cell_angle_beta     90
_cell_angle_gamma    90

_symmetry_Int_Tables_number  58
_chemical_formula_structural  GaTeCl
_chemical_formula_sum  Ga4Te4Cl4
_cell_volume  350.23086359819894
_cell_formula_units_Z  4
loop_
  _symmetry_equiv_pos_site_id
 _symmetry_equiv_pos_as_xyz
 1  'x, y, z'
loop_
 _atom_site_type_symbol
 _atom_site_label
 _atom_site_symmetry_multiplicity
 _atom_site_fract_x
 _atom_site_fract_y
 _atom_site_fract_z
 _atom_site_fract_occupancy
 Cl  Cl1  1  0.50000  0.23846  0.92675  1
 Cl  Cl2  1  0.00000  0.73846  0.57325  1
 Cl  Cl3  1  0.50000  0.76154  0.07325  1
 Cl  Cl4  1  0.00000  0.26154  0.42675  1
 Ga  Ga1  1  0.50000  0.50927  0.18806  1
 Ga  Ga2  1  0.00000  0.99073  0.68806  1
 Ga  Ga3  1  0.00000  0.00927  0.31194  1
 Ga  Ga4  1  0.50000  0.49073  0.81194  1
 Te  Te1  1  0.50000  0.26514  0.65161  1
 Te  Te2  1  0.00000  0.76514  0.84839  1
 Te  Te3  1  0.00000  0.23486  0.15161  1
 Te  Te4  1  0.50000  0.73486  0.34839  1
