CIF file written using JARVIS-Tools package.
data_SiH12C2N6F6
_symmetry_space_group_name_H-M  'C2/m'
_cell_length_a       7.29757
_cell_length_b       7.29757
_cell_length_c       5.88603
_cell_angle_alpha    68.856
_cell_angle_beta     111.144
_cell_angle_gamma    119.723

_symmetry_Int_Tables_number  12
_chemical_formula_structural  SiH12C2N6F6
_chemical_formula_sum  SiH2C2N6F6
_cell_volume  247.40657058245094
_cell_formula_units_Z  1
loop_
  _symmetry_equiv_pos_site_id
 _symmetry_equiv_pos_as_xyz
 1  'x, y, z'
loop_
 _atom_site_type_symbol
 _atom_site_label
 _atom_site_symmetry_multiplicity
 _atom_site_fract_x
 _atom_site_fract_y
 _atom_site_fract_z
 _atom_site_fract_occupancy
 C  C1  1  0.72220  0.27780  0.27266  1
 C  C2  1  0.27780  0.72220  0.72734  1
 F  F1  1  0.15279  0.17979  0.19310  1
 F  F2  1  0.82021  0.84721  0.19310  1
 F  F3  1  0.84721  0.82021  0.80690  1
 F  F4  1  0.17979  0.15279  0.80690  1
 F  F5  1  0.85125  0.14875  0.83256  1
 F  F6  1  0.14875  0.85125  0.16744  1
 H  H1  1  0.01262  0.30562  0.26004  1
 H  H2  1  0.30748  0.45258  0.74143  1
 H  H3  1  0.54742  0.69252  0.74143  1
 H  H4  1  0.69252  0.54742  0.25857  1
 H  H5  1  0.45258  0.30748  0.25857  1
 H  H6  1  0.98738  0.69438  0.73996  1
 H  H7  1  0.30562  0.01262  0.73996  1
 H  H8  1  0.54742  0.01091  0.74642  1
 H  H9  1  0.98909  0.45258  0.74642  1
 H  H10  1  0.69438  0.98738  0.26004  1
 H  H11  1  0.45258  0.98909  0.25358  1
 H  H12  1  0.01091  0.54742  0.25358  1
 N  N1  1  0.38318  0.93303  0.72799  1
 N  N2  1  0.61682  0.06697  0.27201  1
 N  N3  1  0.06697  0.61682  0.72799  1
 N  N4  1  0.61735  0.38265  0.28020  1
 N  N5  1  0.38265  0.61735  0.71980  1
 N  N6  1  0.93303  0.38318  0.27201  1
 Si  Si1  1  0.00000  0.00000  0.00000  1
