CIF file written using JARVIS-Tools package.
data_Bi2PbSe4
_symmetry_space_group_name_H-M  'R-3m'
_cell_length_a       13.5282
_cell_length_b       13.5282
_cell_length_c       13.5282
_cell_angle_alpha    18.0367
_cell_angle_beta     18.0367
_cell_angle_gamma    18.0367

_symmetry_Int_Tables_number  166
_chemical_formula_structural  Bi2PbSe4
_chemical_formula_sum  Bi2PbSe4
_cell_volume  207.2503193439078
_cell_formula_units_Z  1
loop_
  _symmetry_equiv_pos_site_id
 _symmetry_equiv_pos_as_xyz
 1  'x, y, z'
loop_
 _atom_site_type_symbol
 _atom_site_label
 _atom_site_symmetry_multiplicity
 _atom_site_fract_x
 _atom_site_fract_y
 _atom_site_fract_z
 _atom_site_fract_occupancy
 Bi  Bi1  1  0.42821  0.42821  0.42821  1
 Bi  Bi2  1  0.57179  0.57179  0.57179  1
 Pb  Pb1  1  0.00000  0.00000  0.00000  1
 Se  Se1  1  0.13339  0.13339  0.13339  1
 Se  Se2  1  0.28685  0.28685  0.28685  1
 Se  Se3  1  0.71315  0.71315  0.71315  1
 Se  Se4  1  0.86661  0.86661  0.86661  1
