CIF file written using JARVIS-Tools package.
data_Cd2Bi6O11
_symmetry_space_group_name_H-M  'P1'
_cell_length_a       3.68691
_cell_length_b       3.68962
_cell_length_c       31.2575
_cell_angle_alpha    117.88
_cell_angle_beta     118.756
_cell_angle_gamma    90.1277

_symmetry_Int_Tables_number  1
_chemical_formula_structural  Cd2Bi6O11
_chemical_formula_sum  Cd2Bi6O
_cell_volume  315.0185324033568
_cell_formula_units_Z  1
loop_
  _symmetry_equiv_pos_site_id
 _symmetry_equiv_pos_as_xyz
 1  'x, y, z'
loop_
 _atom_site_type_symbol
 _atom_site_label
 _atom_site_symmetry_multiplicity
 _atom_site_fract_x
 _atom_site_fract_y
 _atom_site_fract_z
 _atom_site_fract_occupancy
 Bi  Bi1  1  0.18679  0.90668  0.88502  1
 Bi  Bi2  1  0.03148  0.92379  0.74320  1
 Bi  Bi3  1  0.99610  0.89813  0.61041  1
 Bi  Bi4  1  0.82404  0.87817  0.47962  1
 Bi  Bi5  1  0.84211  0.90831  0.36128  1
 Bi  Bi6  1  0.11656  0.03476  0.01657  1
 Cd  Cd1  1  0.11122  0.95037  0.24597  1
 Cd  Cd2  1  0.18135  0.02592  0.13909  1
 O  O1  1  0.80237  0.69101  0.91227  1
 O  O2  1  0.90095  0.23735  0.19231  1
 O  O3  1  0.89417  0.19645  0.81384  1
 O  O4  1  0.60960  0.31367  0.71514  1
 O  O5  1  0.54294  0.13641  0.41871  1
 O  O6  1  0.79238  0.50510  0.63753  1
 O  O7  1  0.35985  0.57909  0.53011  1
 O  O8  1  0.05645  0.64986  0.42211  1
 O  O9  1  0.85308  0.17402  0.30218  1
 O  O10  1  0.68062  0.42617  0.98877  1
 O  O11  1  0.96797  0.31475  0.08587  1
