CIF file written using JARVIS-Tools package.
data_HfO2
_symmetry_space_group_name_H-M  'Pbca'
_cell_length_a       5.17198
_cell_length_b       5.29556
_cell_length_c       10.1534
_cell_angle_alpha    90
_cell_angle_beta     90
_cell_angle_gamma    90

_symmetry_Int_Tables_number  61
_chemical_formula_structural  HfO2
_chemical_formula_sum  Hf8O6
_cell_volume  278.0866338013414
_cell_formula_units_Z  8
loop_
  _symmetry_equiv_pos_site_id
 _symmetry_equiv_pos_as_xyz
 1  'x, y, z'
loop_
 _atom_site_type_symbol
 _atom_site_label
 _atom_site_symmetry_multiplicity
 _atom_site_fract_x
 _atom_site_fract_y
 _atom_site_fract_z
 _atom_site_fract_occupancy
 Hf  Hf1  1  0.95910  0.34184  0.13816  1
 Hf  Hf2  1  0.54090  0.84184  0.13816  1
 Hf  Hf3  1  0.45910  0.34184  0.36184  1
 Hf  Hf4  1  0.04090  0.84184  0.36184  1
 Hf  Hf5  1  0.95910  0.15816  0.63816  1
 Hf  Hf6  1  0.54090  0.65816  0.63816  1
 Hf  Hf7  1  0.45910  0.15816  0.86184  1
 Hf  Hf8  1  0.04090  0.65816  0.86184  1
 O  O1  1  0.83049  0.66633  0.03346  1
 O  O2  1  0.66951  0.16633  0.03346  1
 O  O3  1  0.24667  0.08690  0.22340  1
 O  O4  1  0.16951  0.33367  0.96654  1
 O  O5  1  0.74667  0.08690  0.27660  1
 O  O6  1  0.75333  0.58690  0.27660  1
 O  O7  1  0.25333  0.58690  0.22340  1
 O  O8  1  0.24667  0.41310  0.72340  1
 O  O9  1  0.66951  0.33367  0.53346  1
 O  O10  1  0.83049  0.83367  0.53346  1
 O  O11  1  0.16951  0.16633  0.46654  1
 O  O12  1  0.25333  0.91310  0.72340  1
 O  O13  1  0.74667  0.41310  0.77660  1
 O  O14  1  0.75333  0.91310  0.77660  1
 O  O15  1  0.33049  0.66633  0.46654  1
 O  O16  1  0.33049  0.83367  0.96654  1
