CIF file written using JARVIS-Tools package.
data_ZnP2H4O4
_symmetry_space_group_name_H-M  'Pmma'
_cell_length_a       6.47685
_cell_length_b       5.40973
_cell_length_c       7.30107
_cell_angle_alpha    90
_cell_angle_beta     90
_cell_angle_gamma    90

_symmetry_Int_Tables_number  51
_chemical_formula_structural  ZnP2H4O4
_chemical_formula_sum  Zn2P4H8O8
_cell_volume  255.81475468335304
_cell_formula_units_Z  2
loop_
  _symmetry_equiv_pos_site_id
 _symmetry_equiv_pos_as_xyz
 1  'x, y, z'
loop_
 _atom_site_type_symbol
 _atom_site_label
 _atom_site_symmetry_multiplicity
 _atom_site_fract_x
 _atom_site_fract_y
 _atom_site_fract_z
 _atom_site_fract_occupancy
 H  H1  1  0.07498  0.00000  0.73697  1
 H  H2  1  0.25000  0.70714  0.49959  1
 H  H3  1  0.75000  0.70714  0.50041  1
 H  H4  1  0.75000  0.29286  0.50041  1
 H  H5  1  0.25000  0.29286  0.49959  1
 H  H6  1  0.57498  0.00000  0.26303  1
 H  H7  1  0.42502  0.00000  0.73697  1
 H  H8  1  0.92502  0.00000  0.26303  1
 O  O1  1  0.45212  0.50000  0.27350  1
 O  O2  1  0.25000  0.23824  0.96650  1
 O  O3  1  0.75000  0.23824  0.03350  1
 O  O4  1  0.75000  0.76176  0.03350  1
 O  O5  1  0.25000  0.76176  0.96650  1
 O  O6  1  0.04788  0.50000  0.27350  1
 O  O7  1  0.95212  0.50000  0.72650  1
 O  O8  1  0.54788  0.50000  0.72650  1
 P  P1  1  0.75000  0.50000  0.61932  1
 P  P2  1  0.25000  0.50000  0.38068  1
 P  P3  1  0.75000  0.00000  0.14684  1
 P  P4  1  0.25000  0.00000  0.85316  1
 Zn  Zn1  1  0.00000  0.50000  0.00000  1
 Zn  Zn2  1  0.50000  0.50000  0.00000  1
