CIF file written using JARVIS-Tools package.
data_YbTiO3
_symmetry_space_group_name_H-M  'R-3'
_cell_length_a       5.79222
_cell_length_b       5.79222
_cell_length_c       5.79221
_cell_angle_alpha    54.2164
_cell_angle_beta     54.2164
_cell_angle_gamma    54.2165

_symmetry_Int_Tables_number  148
_chemical_formula_structural  YbTiO3
_chemical_formula_sum  Yb2Ti2O6
_cell_volume  118.86283812693857
_cell_formula_units_Z  2
loop_
  _symmetry_equiv_pos_site_id
 _symmetry_equiv_pos_as_xyz
 1  'x, y, z'
loop_
 _atom_site_type_symbol
 _atom_site_label
 _atom_site_symmetry_multiplicity
 _atom_site_fract_x
 _atom_site_fract_y
 _atom_site_fract_z
 _atom_site_fract_occupancy
 O  O1  1  0.02473  0.80977  0.43517  1
 O  O2  1  0.43517  0.02473  0.80977  1
 O  O3  1  0.80977  0.43517  0.02473  1
 O  O4  1  0.19023  0.56483  0.97527  1
 O  O5  1  0.56483  0.97527  0.19023  1
 O  O6  1  0.97527  0.19023  0.56483  1
 Ti  Ti1  1  0.14882  0.14882  0.14882  1
 Ti  Ti2  1  0.85118  0.85118  0.85118  1
 Yb  Yb1  1  0.36254  0.36254  0.36254  1
 Yb  Yb2  1  0.63746  0.63746  0.63746  1
