CIF file written using JARVIS-Tools package.
data_NaN3
_symmetry_space_group_name_H-M  'C2/m'
_cell_length_a       3.59151
_cell_length_b       3.59151
_cell_length_c       6.30778
_cell_angle_alpha    57.9477
_cell_angle_beta     57.9477
_cell_angle_gamma    36.508

_symmetry_Int_Tables_number  12
_chemical_formula_structural  NaN3
_chemical_formula_sum  NaN3
_cell_volume  40.14292592391493
_cell_formula_units_Z  1
loop_
  _symmetry_equiv_pos_site_id
 _symmetry_equiv_pos_as_xyz
 1  'x, y, z'
loop_
 _atom_site_type_symbol
 _atom_site_label
 _atom_site_symmetry_multiplicity
 _atom_site_fract_x
 _atom_site_fract_y
 _atom_site_fract_z
 _atom_site_fract_occupancy
 N  N1  1  0.50000  0.50000  0.50000  1
 N  N2  1  0.87899  0.87899  0.70253  1
 N  N3  1  0.12101  0.12101  0.29747  1
 Na  Na1  1  0.00000  0.00000  0.00000  1
