CIF file written using JARVIS-Tools package.
data_BiAuBr6
_symmetry_space_group_name_H-M  'P-1'
_cell_length_a       7.28666
_cell_length_b       10.6915
_cell_length_c       14.5325
_cell_angle_alpha    105.483
_cell_angle_beta     94.3126
_cell_angle_gamma    109.859

_symmetry_Int_Tables_number  2
_chemical_formula_structural  BiAuBr6
_chemical_formula_sum  Bi4Au4Br24
_cell_volume  1008.8612304920288
_cell_formula_units_Z  4
loop_
  _symmetry_equiv_pos_site_id
 _symmetry_equiv_pos_as_xyz
 1  'x, y, z'
loop_
 _atom_site_type_symbol
 _atom_site_label
 _atom_site_symmetry_multiplicity
 _atom_site_fract_x
 _atom_site_fract_y
 _atom_site_fract_z
 _atom_site_fract_occupancy
 Au  Au1  1  0.29978  0.63510  0.76549  1
 Au  Au2  1  0.70022  0.36490  0.23451  1
 Au  Au3  1  0.50000  0.50000  0.50000  1
 Au  Au4  1  0.00000  0.00000  0.00000  1
 Bi  Bi1  1  0.59079  0.92149  0.62016  1
 Bi  Bi2  1  0.40921  0.07851  0.37984  1
 Bi  Bi3  1  0.97714  0.31243  0.86975  1
 Bi  Bi4  1  0.02286  0.68757  0.13025  1
 Br  Br1  1  0.72400  0.37271  0.50684  1
 Br  Br2  1  0.72739  0.43686  0.97852  1
 Br  Br3  1  0.34511  0.41817  0.77215  1
 Br  Br4  1  0.04950  0.46772  0.21851  1
 Br  Br5  1  0.35053  0.25818  0.24775  1
 Br  Br6  1  0.75265  0.15448  0.24951  1
 Br  Br7  1  0.24735  0.84552  0.75049  1
 Br  Br8  1  0.27600  0.62729  0.49316  1
 Br  Br9  1  0.64947  0.74182  0.75225  1
 Br  Br10  1  0.95050  0.53228  0.78149  1
 Br  Br11  1  0.65489  0.58183  0.22785  1
 Br  Br12  1  0.75606  0.10461  0.96947  1
 Br  Br13  1  0.40995  0.81531  0.26116  1
 Br  Br14  1  0.24030  0.95343  0.51708  1
 Br  Br15  1  0.78559  0.71418  0.51028  1
 Br  Br16  1  0.00607  0.94210  0.27605  1
 Br  Br17  1  0.99393  0.05790  0.72395  1
 Br  Br18  1  0.75970  0.04657  0.48292  1
 Br  Br19  1  0.59005  0.18469  0.73884  1
 Br  Br20  1  0.26571  0.19984  0.97494  1
 Br  Br21  1  0.73429  0.80016  0.02506  1
 Br  Br22  1  0.24394  0.89539  0.03053  1
 Br  Br23  1  0.21441  0.28582  0.48972  1
 Br  Br24  1  0.27261  0.56314  0.02148  1
