CIF file written using JARVIS-Tools package.
data_CaP3
_symmetry_space_group_name_H-M  'P-1'
_cell_length_a       5.60427
_cell_length_b       5.62503
_cell_length_c       5.68468
_cell_angle_alpha    70.231
_cell_angle_beta     79.6575
_cell_angle_gamma    74.8675

_symmetry_Int_Tables_number  2
_chemical_formula_structural  CaP3
_chemical_formula_sum  Ca2P6
_cell_volume  161.971920461394
_cell_formula_units_Z  2
loop_
  _symmetry_equiv_pos_site_id
 _symmetry_equiv_pos_as_xyz
 1  'x, y, z'
loop_
 _atom_site_type_symbol
 _atom_site_label
 _atom_site_symmetry_multiplicity
 _atom_site_fract_x
 _atom_site_fract_y
 _atom_site_fract_z
 _atom_site_fract_occupancy
 Ca  Ca1  1  0.67690  0.64280  0.64504  1
 Ca  Ca2  1  0.32310  0.35720  0.35496  1
 P  P1  1  0.59757  0.79727  0.10048  1
 P  P2  1  0.40243  0.20273  0.89952  1
 P  P3  1  0.00289  0.20220  0.99743  1
 P  P4  1  0.99711  0.79780  0.00257  1
 P  P5  1  0.12949  0.82118  0.60355  1
 P  P6  1  0.87051  0.17882  0.39645  1
