CIF file written using JARVIS-Tools package.
data_Li4Ti3Co3Ni2O16
_symmetry_space_group_name_H-M  'Cm'
_cell_length_a       5.69695
_cell_length_b       5.69671
_cell_length_c       9.38945
_cell_angle_alpha    88.6604
_cell_angle_beta     88.6418
_cell_angle_gamma    60.8396

_symmetry_Int_Tables_number  8
_chemical_formula_structural  Li4Ti3Co3Ni2O16
_chemical_formula_sum  Li4Ti3Co3Ni2O6
_cell_volume  266.0040662873797
_cell_formula_units_Z  1
loop_
  _symmetry_equiv_pos_site_id
 _symmetry_equiv_pos_as_xyz
 1  'x, y, z'
loop_
 _atom_site_type_symbol
 _atom_site_label
 _atom_site_symmetry_multiplicity
 _atom_site_fract_x
 _atom_site_fract_y
 _atom_site_fract_z
 _atom_site_fract_occupancy
 Co  Co1  1  0.34152  0.82829  0.71337  1
 Co  Co2  1  0.17475  0.17468  0.21296  1
 Co  Co3  1  0.82847  0.34136  0.71336  1
 Li  Li1  1  0.32458  0.32467  0.89206  1
 Li  Li2  1  0.01671  0.01618  0.49618  1
 Li  Li3  1  0.02291  0.02267  0.99447  1
 Li  Li4  1  0.65609  0.65631  0.40185  1
 Ni  Ni1  1  0.33201  0.33196  0.48964  1
 Ni  Ni2  1  0.66440  0.66444  0.98167  1
 O  O1  1  0.67614  0.16578  0.59954  1
 O  O2  1  0.51314  0.51309  0.82751  1
 O  O3  1  0.33868  0.33860  0.09649  1
 O  O4  1  0.47386  0.47410  0.34370  1
 O  O5  1  0.00283  0.00295  0.31111  1
 O  O6  1  0.00318  0.00312  0.81146  1
 O  O7  1  0.16600  0.67584  0.59958  1
 O  O8  1  0.03068  0.47184  0.34229  1
 O  O9  1  0.83672  0.33639  0.10303  1
 O  O10  1  0.95334  0.51183  0.84254  1
 O  O11  1  0.51178  0.95336  0.84255  1
 O  O12  1  0.66458  0.66432  0.60433  1
 O  O13  1  0.47167  0.03094  0.34233  1
 O  O14  1  0.83810  0.83821  0.09955  1
 O  O15  1  0.16693  0.16671  0.60829  1
 O  O16  1  0.33641  0.83661  0.10306  1
 Ti  Ti1  1  0.83252  0.83262  0.70998  1
 Ti  Ti2  1  0.16197  0.66035  0.21247  1
 Ti  Ti3  1  0.66032  0.16247  0.21249  1
