CIF file written using JARVIS-Tools package.
data_SnH12C6F2
_symmetry_space_group_name_H-M  'P1'
_cell_length_a       4.26387
_cell_length_b       4.63947
_cell_length_c       19.02
_cell_angle_alpha    91.3933
_cell_angle_beta     92.2609
_cell_angle_gamma    111.044

_symmetry_Int_Tables_number  1
_chemical_formula_structural  SnH12C6F2
_chemical_formula_sum  Sn2H24C2F4
_cell_volume  350.5879638077399
_cell_formula_units_Z  2
loop_
  _symmetry_equiv_pos_site_id
 _symmetry_equiv_pos_as_xyz
 1  'x, y, z'
loop_
 _atom_site_type_symbol
 _atom_site_label
 _atom_site_symmetry_multiplicity
 _atom_site_fract_x
 _atom_site_fract_y
 _atom_site_fract_z
 _atom_site_fract_occupancy
 C  C1  1  0.30917  0.68729  0.06727  1
 C  C2  1  0.89207  0.80598  0.67572  1
 C  C3  1  0.27124  0.92635  0.11943  1
 C  C4  1  0.17295  0.78986  0.19151  1
 C  C5  1  0.99391  0.12431  0.36958  1
 C  C6  1  0.24805  0.63051  0.85584  1
 C  C7  1  0.12941  0.02096  0.24535  1
 C  C8  1  0.03149  0.88486  0.31748  1
 C  C9  1  0.16509  0.83006  0.80077  1
 C  C10  1  0.00047  0.63275  0.73386  1
 C  C11  1  0.07318  0.20072  0.57953  1
 C  C12  1  0.18246  0.01909  0.63525  1
 F  F1  1  0.55499  0.29788  0.96095  1
 F  F2  1  0.91177  0.93024  0.96030  1
 F  F3  1  0.39289  0.88267  0.47674  1
 F  F4  1  0.75009  0.51559  0.47632  1
 H  H1  1  0.93767  0.10983  0.22471  1
 H  H2  1  0.36624  0.22331  0.25216  1
 H  H3  1  0.02696  0.42343  0.86473  1
 H  H4  1  0.45233  0.55383  0.84093  1
 H  H5  1  0.39490  0.02297  0.78848  1
 H  H6  1  0.22409  0.33191  0.37492  1
 H  H7  1  0.78350  0.19698  0.35440  1
 H  H8  1  0.51951  0.61450  0.08242  1
 H  H9  1  0.07899  0.47980  0.06173  1
 H  H10  1  0.07926  0.01457  0.09901  1
 H  H11  1  0.50814  0.12827  0.12581  1
 H  H12  1  0.36539  0.18529  0.67301  1
 H  H13  1  0.28238  0.40793  0.56552  1
 H  H14  1  0.86806  0.27281  0.59570  1
 H  H15  1  -0.00800  0.93569  0.82141  1
 H  H16  1  0.71183  0.63844  0.63786  1
 H  H17  1  0.77759  0.44030  0.74970  1
 H  H18  1  0.17221  0.52568  0.71316  1
 H  H19  1  0.31788  0.88343  0.61122  1
 H  H20  1  0.36456  0.70086  0.21216  1
 H  H21  1  0.93607  0.58759  0.18465  1
 H  H22  1  0.22356  0.79673  0.33789  1
 H  H23  1  0.79453  0.68296  0.31120  1
 H  H24  1  0.75504  0.94197  0.69932  1
 Sn  Sn1  1  0.38348  0.82900  0.96076  1
 Sn  Sn2  1  0.92079  0.98446  0.47628  1
