CIF file written using JARVIS-Tools package.
data_LiV6O7F5
_symmetry_space_group_name_H-M  'P1'
_cell_length_a       5.63623
_cell_length_b       5.55124
_cell_length_c       7.44855
_cell_angle_alpha    70.6298
_cell_angle_beta     70.1861
_cell_angle_gamma    72.0631

_symmetry_Int_Tables_number  1
_chemical_formula_structural  LiV6O7F5
_chemical_formula_sum  LiV6O7F5
_cell_volume  201.76070512709512
_cell_formula_units_Z  1
loop_
  _symmetry_equiv_pos_site_id
 _symmetry_equiv_pos_as_xyz
 1  'x, y, z'
loop_
 _atom_site_type_symbol
 _atom_site_label
 _atom_site_symmetry_multiplicity
 _atom_site_fract_x
 _atom_site_fract_y
 _atom_site_fract_z
 _atom_site_fract_occupancy
 F  F1  1  0.69472  0.31032  0.99057  1
 F  F2  1  0.12472  0.09443  0.69821  1
 F  F3  1  0.88162  0.91040  0.30504  1
 F  F4  1  0.31330  0.69936  0.00228  1
 F  F5  1  0.56507  0.60466  0.63098  1
 Li  Li1  1  0.54164  0.02274  0.46372  1
 O  O1  1  0.22188  0.23576  0.96575  1
 O  O2  1  0.64327  0.05606  0.66728  1
 O  O3  1  0.36894  0.94541  0.32458  1
 O  O4  1  0.43427  0.40101  0.36699  1
 O  O5  1  0.78802  0.77521  0.02563  1
 O  O6  1  0.95619  0.36698  0.33042  1
 O  O7  1  0.04359  0.64223  0.66326  1
 V  V1  1  0.70278  0.70254  0.82696  1
 V  V2  1  0.33596  0.35757  0.67596  1
 V  V3  1  0.65273  0.62871  0.29875  1
 V  V4  1  0.30522  0.31164  0.17548  1
 V  V5  1  0.00559  0.00597  0.00310  1
 V  V6  1  0.00889  0.00290  0.49949  1
