CIF file written using JARVIS-Tools package.
data_CuN
_symmetry_space_group_name_H-M  'C2'
_cell_length_a       2.86629
_cell_length_b       2.86612
_cell_length_c       6.00664
_cell_angle_alpha    94.5965
_cell_angle_beta     94.6227
_cell_angle_gamma    61.4975

_symmetry_Int_Tables_number  5
_chemical_formula_structural  CuN
_chemical_formula_sum  Cu2N2
_cell_volume  43.17459680632016
_cell_formula_units_Z  2
loop_
  _symmetry_equiv_pos_site_id
 _symmetry_equiv_pos_as_xyz
 1  'x, y, z'
loop_
 _atom_site_type_symbol
 _atom_site_label
 _atom_site_symmetry_multiplicity
 _atom_site_fract_x
 _atom_site_fract_y
 _atom_site_fract_z
 _atom_site_fract_occupancy
 Cu  Cu1  1  0.71387  0.66644  0.90785  1
 Cu  Cu2  1  0.33293  0.28623  0.58630  1
 N  N1  1  0.22985  0.79120  0.34581  1
 N  N2  1  0.20878  0.77035  0.14829  1
