CIF file written using JARVIS-Tools package.
data_Na3GaSe3
_symmetry_space_group_name_H-M  'P2_1/c'
_cell_length_a       7.22457
_cell_length_b       7.47887
_cell_length_c       13.2035
_cell_angle_alpha    90.8856
_cell_angle_beta     90
_cell_angle_gamma    90

_symmetry_Int_Tables_number  14
_chemical_formula_structural  Na3GaSe3
_chemical_formula_sum  Na2Ga4Se2
_cell_volume  713.3235340687884
_cell_formula_units_Z  4
loop_
  _symmetry_equiv_pos_site_id
 _symmetry_equiv_pos_as_xyz
 1  'x, y, z'
loop_
 _atom_site_type_symbol
 _atom_site_label
 _atom_site_symmetry_multiplicity
 _atom_site_fract_x
 _atom_site_fract_y
 _atom_site_fract_z
 _atom_site_fract_occupancy
 Ga  Ga1  1  0.14298  0.41375  0.08398  1
 Ga  Ga2  1  0.85702  0.58625  0.91602  1
 Ga  Ga3  1  0.35702  0.91375  0.58398  1
 Ga  Ga4  1  0.64298  0.08625  0.41602  1
 Na  Na1  1  0.00047  0.71619  0.39913  1
 Na  Na2  1  0.50047  0.78381  0.10087  1
 Na  Na3  1  0.99953  0.28381  0.60087  1
 Na  Na4  1  0.49953  0.21619  0.89913  1
 Na  Na5  1  0.47055  0.72562  0.78513  1
 Na  Na6  1  0.50031  0.66844  0.39294  1
 Na  Na7  1  0.99969  0.16844  0.89294  1
 Na  Na8  1  0.49969  0.33156  0.60706  1
 Na  Na9  1  0.02945  0.22562  0.28513  1
 Na  Na10  1  0.52945  0.27438  0.21487  1
 Na  Na11  1  0.97055  0.77438  0.71487  1
 Na  Na12  1  0.00031  0.83156  0.10706  1
 Se  Se1  1  0.24056  0.61575  0.57332  1
 Se  Se2  1  0.74056  0.88425  0.92668  1
 Se  Se3  1  0.24470  0.57467  0.23143  1
 Se  Se4  1  0.74470  0.92533  0.26857  1
 Se  Se5  1  0.75530  0.42533  0.76857  1
 Se  Se6  1  0.29690  0.07806  0.42779  1
 Se  Se7  1  0.79690  0.42194  0.07221  1
 Se  Se8  1  0.20310  0.57806  0.92779  1
 Se  Se9  1  0.70310  0.92194  0.57221  1
 Se  Se10  1  0.25944  0.11575  0.07332  1
 Se  Se11  1  0.25530  0.07467  0.73143  1
 Se  Se12  1  0.75944  0.38425  0.42668  1
