CIF file written using JARVIS-Tools package.
data_Te
_symmetry_space_group_name_H-M  'Pbam'
_cell_length_a       3.20882
_cell_length_b       4.5365
_cell_length_c       9.07979
_cell_angle_alpha    90
_cell_angle_beta     90
_cell_angle_gamma    90.0017

_symmetry_Int_Tables_number  55
_chemical_formula_structural  Te
_chemical_formula_sum  Te4
_cell_volume  132.17271330795066
_cell_formula_units_Z  4
loop_
  _symmetry_equiv_pos_site_id
 _symmetry_equiv_pos_as_xyz
 1  'x, y, z'
loop_
 _atom_site_type_symbol
 _atom_site_label
 _atom_site_symmetry_multiplicity
 _atom_site_fract_x
 _atom_site_fract_y
 _atom_site_fract_z
 _atom_site_fract_occupancy
 Te  Te1  1  0.00032  0.49732  0.26001  1
 Te  Te2  1  -0.00032  0.50268  0.76001  1
 Te  Te3  1  0.00030  0.00271  0.50999  1
 Te  Te4  1  -0.00030  0.99729  0.00999  1
