CIF file written using JARVIS-Tools package.
data_SbAsF8
_symmetry_space_group_name_H-M  'P2_1/m'
_cell_length_a       5.58008
_cell_length_b       6.96261
_cell_length_c       7.86437
_cell_angle_alpha    90
_cell_angle_beta     90
_cell_angle_gamma    97.5053

_symmetry_Int_Tables_number  11
_chemical_formula_structural  SbAsF8
_chemical_formula_sum  Sb2As2F6
_cell_volume  302.92820673685395
_cell_formula_units_Z  2
loop_
  _symmetry_equiv_pos_site_id
 _symmetry_equiv_pos_as_xyz
 1  'x, y, z'
loop_
 _atom_site_type_symbol
 _atom_site_label
 _atom_site_symmetry_multiplicity
 _atom_site_fract_x
 _atom_site_fract_y
 _atom_site_fract_z
 _atom_site_fract_occupancy
 As  As1  1  0.49702  0.68912  0.75000  1
 As  As2  1  0.50298  0.31088  0.25000  1
 F  F1  1  0.45916  0.00578  0.25000  1
 F  F2  1  0.77890  0.21506  0.99186  1
 F  F3  1  0.77890  0.21506  0.50814  1
 F  F4  1  0.22110  0.78494  0.00814  1
 F  F5  1  0.96103  0.95572  0.25000  1
 F  F6  1  0.03897  0.04428  0.75000  1
 F  F7  1  0.29081  0.29713  0.08430  1
 F  F8  1  0.70919  0.70287  0.58430  1
 F  F9  1  0.29081  0.29713  0.41570  1
 F  F10  1  0.70919  0.70287  0.91570  1
 F  F11  1  0.54084  0.99422  0.75000  1
 F  F12  1  0.46538  0.62616  0.25000  1
 F  F13  1  0.53462  0.37384  0.75000  1
 F  F14  1  0.96771  0.55367  0.25000  1
 F  F15  1  0.03229  0.44633  0.75000  1
 F  F16  1  0.22110  0.78494  0.49186  1
 Sb  Sb1  1  0.19366  0.78224  0.25000  1
 Sb  Sb2  1  0.80634  0.21776  0.75000  1
