CIF file written using JARVIS-Tools package.
data_Mg2B2O5
_symmetry_space_group_name_H-M  'P-1'
_cell_length_a       3.12575
_cell_length_b       6.19282
_cell_length_c       9.25859
_cell_angle_alpha    104.291
_cell_angle_beta     90.1679
_cell_angle_gamma    92.2267

_symmetry_Int_Tables_number  2
_chemical_formula_structural  Mg2B2O5
_chemical_formula_sum  Mg4B4O0
_cell_volume  173.52871944480782
_cell_formula_units_Z  2
loop_
  _symmetry_equiv_pos_site_id
 _symmetry_equiv_pos_as_xyz
 1  'x, y, z'
loop_
 _atom_site_type_symbol
 _atom_site_label
 _atom_site_symmetry_multiplicity
 _atom_site_fract_x
 _atom_site_fract_y
 _atom_site_fract_z
 _atom_site_fract_occupancy
 B  B1  1  0.80011  0.31757  0.14305  1
 B  B2  1  0.19989  0.68243  0.85695  1
 B  B3  1  0.83515  0.87981  0.66856  1
 B  B4  1  0.16485  0.12019  0.33144  1
 Mg  Mg1  1  0.23177  0.20968  0.85452  1
 Mg  Mg2  1  0.76823  0.79032  0.14548  1
 Mg  Mg3  1  0.73371  0.37308  0.60277  1
 Mg  Mg4  1  0.26629  0.62692  0.39723  1
 O  O1  1  0.75846  0.52196  0.24118  1
 O  O2  1  0.72192  0.09317  0.67974  1
 O  O3  1  0.23559  0.30409  0.44682  1
 O  O4  1  0.27808  0.90683  0.32026  1
 O  O5  1  0.72900  0.27415  0.99487  1
 O  O6  1  0.06287  0.86180  0.79945  1
 O  O7  1  0.27100  0.72585  0.00513  1
 O  O8  1  0.76441  0.69591  0.55318  1
 O  O9  1  0.93713  0.13820  0.20055  1
 O  O10  1  0.24154  0.47804  0.75882  1
