CIF file written using JARVIS-Tools package.
data_TiOF2
_symmetry_space_group_name_H-M  'C222_1'
_cell_length_a       4.97317
_cell_length_b       9.12508
_cell_length_c       5.07051
_cell_angle_alpha    90
_cell_angle_beta     119.335
_cell_angle_gamma    90

_symmetry_Int_Tables_number  20
_chemical_formula_structural  TiOF2
_chemical_formula_sum  Ti4O4F8
_cell_volume  200.59618593447323
_cell_formula_units_Z  4
loop_
  _symmetry_equiv_pos_site_id
 _symmetry_equiv_pos_as_xyz
 1  'x, y, z'
loop_
 _atom_site_type_symbol
 _atom_site_label
 _atom_site_symmetry_multiplicity
 _atom_site_fract_x
 _atom_site_fract_y
 _atom_site_fract_z
 _atom_site_fract_occupancy
 F  F1  1  0.44370  0.06717  0.12885  1
 F  F2  1  0.18488  0.55301  0.12842  1
 F  F3  1  0.20547  0.81012  -0.08936  1
 F  F4  1  0.52037  0.31001  0.54056  1
 F  F5  1  0.47963  0.81001  0.45944  1
 F  F6  1  0.79453  0.31012  0.08936  1
 F  F7  1  0.81512  0.05301  0.87158  1
 F  F8  1  0.55630  0.56717  -0.12885  1
 O  O1  1  0.19444  0.06000  0.50025  1
 O  O2  1  0.14930  0.31004  0.79862  1
 O  O3  1  0.85070  0.81004  0.20138  1
 O  O4  1  0.80556  0.56000  0.49975  1
 Ti  Ti1  1  -0.12257  0.43733  0.80873  1
 Ti  Ti2  1  0.43142  0.18278  0.80894  1
 Ti  Ti3  1  0.56858  0.68278  0.19106  1
 Ti  Ti4  1  0.12257  0.93733  0.19127  1
