CIF file written using JARVIS-Tools package.
data_LiErO2
_symmetry_space_group_name_H-M  'P2_1/c'
_cell_length_a       6.099
_cell_length_b       6.10537
_cell_length_c       6.18688
_cell_angle_alpha    90
_cell_angle_beta     118.895
_cell_angle_gamma    90

_symmetry_Int_Tables_number  14
_chemical_formula_structural  LiErO2
_chemical_formula_sum  Li4Er4O8
_cell_volume  201.698744465205
_cell_formula_units_Z  4
loop_
  _symmetry_equiv_pos_site_id
 _symmetry_equiv_pos_as_xyz
 1  'x, y, z'
loop_
 _atom_site_type_symbol
 _atom_site_label
 _atom_site_symmetry_multiplicity
 _atom_site_fract_x
 _atom_site_fract_y
 _atom_site_fract_z
 _atom_site_fract_occupancy
 Er  Er1  1  0.76635  0.86922  0.02155  1
 Er  Er2  1  0.76635  0.63078  0.52155  1
 Er  Er3  1  0.23365  0.13078  0.97845  1
 Er  Er4  1  0.23365  0.36922  0.47845  1
 Li  Li1  1  0.70856  0.34438  0.93588  1
 Li  Li2  1  0.29144  0.84438  0.56412  1
 Li  Li3  1  0.29144  0.65562  0.06412  1
 Li  Li4  1  0.70856  0.15562  0.43588  1
 O  O1  1  0.01261  0.67204  0.34395  1
 O  O2  1  0.54591  0.60774  0.73816  1
 O  O3  1  0.98739  0.17204  0.15605  1
 O  O4  1  0.98739  0.32796  0.65605  1
 O  O5  1  0.45409  0.39226  0.26184  1
 O  O6  1  0.45409  0.10774  0.76184  1
 O  O7  1  0.54591  0.89226  0.23816  1
 O  O8  1  0.01261  0.82796  0.84395  1
