CIF file written using JARVIS-Tools package.
data_Nb2PS10
_symmetry_space_group_name_H-M  'P2_12_12'
_cell_length_a       7.16993
_cell_length_b       13.1217
_cell_length_c       13.8333
_cell_angle_alpha    90
_cell_angle_beta     90
_cell_angle_gamma    90

_symmetry_Int_Tables_number  18
_chemical_formula_structural  Nb2PS10
_chemical_formula_sum  Nb8P4S40
_cell_volume  1301.4570067108916
_cell_formula_units_Z  4
loop_
  _symmetry_equiv_pos_site_id
 _symmetry_equiv_pos_as_xyz
 1  'x, y, z'
loop_
 _atom_site_type_symbol
 _atom_site_label
 _atom_site_symmetry_multiplicity
 _atom_site_fract_x
 _atom_site_fract_y
 _atom_site_fract_z
 _atom_site_fract_occupancy
 Nb  Nb1  1  0.93769  0.91782  0.25534  1
 Nb  Nb2  1  0.93247  0.20866  0.24816  1
 Nb  Nb3  1  0.06231  0.58218  0.75534  1
 Nb  Nb4  1  0.06231  0.41782  0.24466  1
 Nb  Nb5  1  0.06753  0.29134  0.74816  1
 Nb  Nb6  1  0.93247  0.79134  0.75184  1
 Nb  Nb7  1  0.93769  0.08218  0.74466  1
 Nb  Nb8  1  0.06753  0.70866  0.25184  1
 P  P1  1  0.61817  0.05749  0.15485  1
 P  P2  1  0.38183  0.44251  0.65485  1
 P  P3  1  0.38183  0.55749  0.34515  1
 P  P4  1  0.61817  0.94251  0.84515  1
 S  S1  1  0.82051  0.34865  0.35853  1
 S  S2  1  0.85108  0.56574  0.18568  1
 S  S3  1  0.11013  0.56602  0.12154  1
 S  S4  1  0.88987  0.06602  0.37846  1
 S  S5  1  0.56145  0.42836  0.53251  1
 S  S6  1  0.83096  0.22098  0.63007  1
 S  S7  1  0.83096  0.77902  0.36993  1
 S  S8  1  0.14892  0.06574  0.31432  1
 S  S9  1  0.17949  0.15135  0.85853  1
 S  S10  1  0.57543  0.07225  0.76928  1
 S  S11  1  0.85108  0.43426  0.81432  1
 S  S12  1  0.89826  0.05976  0.11890  1
 S  S13  1  0.89826  0.94024  0.88110  1
 S  S14  1  0.16904  0.27902  0.13007  1
 S  S15  1  0.10174  0.55976  0.38110  1
 S  S16  1  0.43855  0.92836  0.96749  1
 S  S17  1  0.82051  0.65135  0.64147  1
 S  S18  1  0.56893  0.80951  0.77460  1
 S  S19  1  0.10174  0.44024  0.61890  1
 S  S20  1  0.08651  0.30027  0.38741  1
 S  S21  1  0.16904  0.72098  0.86993  1
 S  S22  1  0.91349  0.80027  0.11259  1
 S  S23  1  0.43107  0.30951  0.72540  1
 S  S24  1  0.90210  0.32896  0.10582  1
 S  S25  1  0.57543  0.92775  0.23072  1
 S  S26  1  0.42457  0.57225  0.73072  1
 S  S27  1  0.43855  0.07164  0.03251  1
 S  S28  1  0.11013  0.43398  0.87846  1
 S  S29  1  0.90210  0.67104  0.89418  1
 S  S30  1  0.14892  0.93426  0.68568  1
 S  S31  1  0.09790  0.17104  0.60582  1
 S  S32  1  0.42457  0.42775  0.26928  1
 S  S33  1  0.08651  0.69973  0.61259  1
 S  S34  1  0.56145  0.57164  0.46749  1
 S  S35  1  0.88987  0.93398  0.62154  1
 S  S36  1  0.17949  0.84865  0.14147  1
 S  S37  1  0.09790  0.82896  0.39418  1
 S  S38  1  0.56893  0.19049  0.22540  1
 S  S39  1  0.43107  0.69049  0.27460  1
 S  S40  1  0.91349  0.19973  0.88741  1
