CIF file written using JARVIS-Tools package.
data_NaTaO3
_symmetry_space_group_name_H-M  'Fd-3m'
_cell_length_a       7.41096
_cell_length_b       7.41104
_cell_length_c       7.41096
_cell_angle_alpha    120
_cell_angle_beta     90
_cell_angle_gamma    60.0003

_symmetry_Int_Tables_number  227
_chemical_formula_structural  NaTaO3
_chemical_formula_sum  Na4Ta4O2
_cell_volume  287.8178946930275
_cell_formula_units_Z  4
loop_
  _symmetry_equiv_pos_site_id
 _symmetry_equiv_pos_as_xyz
 1  'x, y, z'
loop_
 _atom_site_type_symbol
 _atom_site_label
 _atom_site_symmetry_multiplicity
 _atom_site_fract_x
 _atom_site_fract_y
 _atom_site_fract_z
 _atom_site_fract_occupancy
 Na  Na1  1  0.00000  0.00000  0.50000  1
 Na  Na2  1  0.50000  0.00000  0.50000  1
 Na  Na3  1  0.50000  0.50000  -0.00000  1
 Na  Na4  1  0.50000  0.50000  0.50000  1
 O  O1  1  0.68031  0.13937  0.06969  1
 O  O2  1  0.68031  0.75000  0.68031  1
 O  O3  1  0.31969  0.25000  0.93031  1
 O  O4  1  0.93031  0.25000  0.31969  1
 O  O5  1  0.31969  0.25000  0.31969  1
 O  O6  1  0.06969  0.36063  0.68031  1
 O  O7  1  0.93031  0.63937  0.31969  1
 O  O8  1  0.68031  0.75000  0.06969  1
 O  O9  1  0.93031  0.25000  0.93031  1
 O  O10  1  0.06969  0.75000  0.68031  1
 O  O11  1  0.06969  0.75000  0.06969  1
 O  O12  1  0.31969  0.86063  0.93031  1
 Ta  Ta1  1  0.00000  0.50000  -0.00000  1
 Ta  Ta2  1  0.00000  0.50000  0.50000  1
 Ta  Ta3  1  0.50000  0.00000  0.00000  1
 Ta  Ta4  1  0.00000  0.00000  0.00000  1
