CIF file written using JARVIS-Tools package.
data_Te2WCl6
_symmetry_space_group_name_H-M  'P-1'
_cell_length_a       6.65216
_cell_length_b       7.76803
_cell_length_c       11.468
_cell_angle_alpha    102.105
_cell_angle_beta     103.816
_cell_angle_gamma    88.6582

_symmetry_Int_Tables_number  2
_chemical_formula_structural  Te2WCl6
_chemical_formula_sum  Te4W2Cl2
_cell_volume  562.4365176418278
_cell_formula_units_Z  2
loop_
  _symmetry_equiv_pos_site_id
 _symmetry_equiv_pos_as_xyz
 1  'x, y, z'
loop_
 _atom_site_type_symbol
 _atom_site_label
 _atom_site_symmetry_multiplicity
 _atom_site_fract_x
 _atom_site_fract_y
 _atom_site_fract_z
 _atom_site_fract_occupancy
 Cl  Cl1  1  0.26996  0.63015  0.60838  1
 Cl  Cl2  1  0.73004  0.36985  0.39162  1
 Cl  Cl3  1  0.85965  0.28863  0.00443  1
 Cl  Cl4  1  0.46713  0.20286  0.11192  1
 Cl  Cl5  1  0.66466  0.60976  0.18146  1
 Cl  Cl6  1  0.87825  0.55189  0.71698  1
 Cl  Cl7  1  0.14035  0.71137  0.99557  1
 Cl  Cl8  1  0.07900  0.95302  0.78251  1
 Cl  Cl9  1  0.12175  0.44811  0.28302  1
 Cl  Cl10  1  0.33534  0.39024  0.81854  1
 Cl  Cl11  1  0.92100  0.04698  0.21749  1
 Cl  Cl12  1  0.53287  0.79714  0.88808  1
 Te  Te1  1  0.38205  0.90359  0.32634  1
 Te  Te2  1  0.26067  0.14918  0.50583  1
 Te  Te3  1  0.61795  0.09641  0.67366  1
 Te  Te4  1  0.73933  0.85082  0.49417  1
 W  W1  1  0.20883  0.67085  0.80464  1
 W  W2  1  0.79117  0.32915  0.19536  1
