CIF file written using JARVIS-Tools package.
data_TlSbS2
_symmetry_space_group_name_H-M  'P-1'
_cell_length_a       6.20025
_cell_length_b       6.20092
_cell_length_c       7.00215
_cell_angle_alpha    118.832
_cell_angle_beta     107.398
_cell_angle_gamma    85.0106

_symmetry_Int_Tables_number  2
_chemical_formula_structural  TlSbS2
_chemical_formula_sum  Tl2Sb2S4
_cell_volume  224.52300978063943
_cell_formula_units_Z  2
loop_
  _symmetry_equiv_pos_site_id
 _symmetry_equiv_pos_as_xyz
 1  'x, y, z'
loop_
 _atom_site_type_symbol
 _atom_site_label
 _atom_site_symmetry_multiplicity
 _atom_site_fract_x
 _atom_site_fract_y
 _atom_site_fract_z
 _atom_site_fract_occupancy
 S  S1  1  0.09599  0.56037  0.06803  1
 S  S2  1  0.65348  0.69066  0.43807  1
 S  S3  1  0.52438  0.90611  0.99891  1
 S  S4  1  0.22511  0.34493  0.50719  1
 Sb  Sb1  1  0.47197  0.51213  -0.00968  1
 Sb  Sb2  1  0.27750  0.73891  0.51578  1
 Tl  Tl1  1  0.00320  0.01285  0.98206  1
 Tl  Tl2  1  0.74629  0.23816  0.52405  1
