CIF file written using JARVIS-Tools package.
data_TaTeCl9
_symmetry_space_group_name_H-M  'P-1'
_cell_length_a       6.31962
_cell_length_b       9.25728
_cell_length_c       11.1762
_cell_angle_alpha    73.3771
_cell_angle_beta     73.8774
_cell_angle_gamma    89.2717

_symmetry_Int_Tables_number  2
_chemical_formula_structural  TaTeCl9
_chemical_formula_sum  Ta2Te2Cl8
_cell_volume  600.2852947723496
_cell_formula_units_Z  2
loop_
  _symmetry_equiv_pos_site_id
 _symmetry_equiv_pos_as_xyz
 1  'x, y, z'
loop_
 _atom_site_type_symbol
 _atom_site_label
 _atom_site_symmetry_multiplicity
 _atom_site_fract_x
 _atom_site_fract_y
 _atom_site_fract_z
 _atom_site_fract_occupancy
 Cl  Cl1  1  0.51600  0.30269  0.08356  1
 Cl  Cl2  1  0.34006  0.75400  0.51181  1
 Cl  Cl3  1  0.65994  0.24600  0.48819  1
 Cl  Cl4  1  0.54790  0.49166  0.70552  1
 Cl  Cl5  1  0.45210  0.50834  0.29448  1
 Cl  Cl6  1  0.25401  0.96210  0.72206  1
 Cl  Cl7  1  0.74599  0.03790  0.27794  1
 Cl  Cl8  1  0.31393  0.90185  0.16547  1
 Cl  Cl9  1  0.05252  0.60766  0.82969  1
 Cl  Cl10  1  0.48400  0.69731  0.91644  1
 Cl  Cl11  1  0.68607  0.09815  0.83453  1
 Cl  Cl12  1  0.76859  0.85476  0.60818  1
 Cl  Cl13  1  0.23141  0.14524  0.39182  1
 Cl  Cl14  1  0.87905  0.80547  0.06248  1
 Cl  Cl15  1  0.12095  0.19453  0.93752  1
 Cl  Cl16  1  0.90013  0.64022  0.38084  1
 Cl  Cl17  1  0.09987  0.35978  0.61916  1
 Cl  Cl18  1  0.94748  0.39234  0.17031  1
 Ta  Ta1  1  0.58359  0.25721  0.29628  1
 Ta  Ta2  1  0.41641  0.74279  0.70372  1
 Te  Te1  1  0.86828  0.32209  0.83193  1
 Te  Te2  1  0.13172  0.67791  0.16807  1
