CIF file written using JARVIS-Tools package.
data_NaYPO4F
_symmetry_space_group_name_H-M  'C2/m'
_cell_length_a       5.67552
_cell_length_b       5.67551
_cell_length_c       6.50307
_cell_angle_alpha    77.3303
_cell_angle_beta     77.3304
_cell_angle_gamma    75.5813

_symmetry_Int_Tables_number  12
_chemical_formula_structural  NaYPO4F
_chemical_formula_sum  Na2Y2P2O8F2
_cell_volume  194.90512561098228
_cell_formula_units_Z  2
loop_
  _symmetry_equiv_pos_site_id
 _symmetry_equiv_pos_as_xyz
 1  'x, y, z'
loop_
 _atom_site_type_symbol
 _atom_site_label
 _atom_site_symmetry_multiplicity
 _atom_site_fract_x
 _atom_site_fract_y
 _atom_site_fract_z
 _atom_site_fract_occupancy
 F  F1  1  0.48030  0.48030  0.80889  1
 F  F2  1  0.51970  0.51970  0.19111  1
 Na  Na1  1  0.70488  0.29512  0.50000  1
 Na  Na2  1  0.29512  0.70488  0.50000  1
 O  O1  1  0.01863  0.01863  0.27430  1
 O  O2  1  0.98137  0.98137  0.72570  1
 O  O3  1  0.25861  0.25861  0.49176  1
 O  O4  1  0.74139  0.74139  0.50824  1
 O  O5  1  0.36904  0.01686  0.84624  1
 O  O6  1  0.63096  0.98314  0.15376  1
 O  O7  1  0.98314  0.63096  0.15376  1
 O  O8  1  0.01686  0.36904  0.84624  1
 P  P1  1  0.15329  0.15329  0.72356  1
 P  P2  1  0.84671  0.84671  0.27644  1
 Y  Y1  1  0.28270  0.28270  0.11784  1
 Y  Y2  1  0.71730  0.71730  0.88216  1
