CIF file written using JARVIS-Tools package.
data_HgPSe3
_symmetry_space_group_name_H-M  'C2/c'
_cell_length_a       6.62097
_cell_length_b       6.66608
_cell_length_c       13.8252
_cell_angle_alpha    85.701
_cell_angle_beta     81.3184
_cell_angle_gamma    60.2236

_symmetry_Int_Tables_number  15
_chemical_formula_structural  HgPSe3
_chemical_formula_sum  Hg4P4Se2
_cell_volume  523.5573921329541
_cell_formula_units_Z  4
loop_
  _symmetry_equiv_pos_site_id
 _symmetry_equiv_pos_as_xyz
 1  'x, y, z'
loop_
 _atom_site_type_symbol
 _atom_site_label
 _atom_site_symmetry_multiplicity
 _atom_site_fract_x
 _atom_site_fract_y
 _atom_site_fract_z
 _atom_site_fract_occupancy
 Hg  Hg1  1  0.76814  0.81373  0.06469  1
 Hg  Hg2  1  0.23186  0.18627  0.93531  1
 Hg  Hg3  1  0.58187  0.18627  0.56469  1
 Hg  Hg4  1  0.41813  0.81373  0.43531  1
 P  P1  1  0.52997  0.53278  0.91595  1
 P  P2  1  0.06275  0.46722  0.41595  1
 P  P3  1  0.47003  0.46722  0.08405  1
 P  P4  1  0.93725  0.53278  0.58405  1
 Se  Se1  1  0.16948  0.21828  0.65996  1
 Se  Se2  1  0.61224  0.21828  0.84004  1
 Se  Se3  1  0.83052  0.78172  0.34004  1
 Se  Se4  1  0.38776  0.78172  0.15996  1
 Se  Se5  1  0.19955  0.83627  0.87596  1
 Se  Se6  1  0.56498  0.60677  0.61289  1
 Se  Se7  1  0.03583  0.16373  0.37596  1
 Se  Se8  1  0.82825  0.60677  0.88711  1
 Se  Se9  1  0.43502  0.39323  0.38711  1
 Se  Se10  1  0.17175  0.39323  0.11289  1
 Se  Se11  1  0.96417  0.83627  0.62404  1
 Se  Se12  1  0.80045  0.16373  0.12404  1
