CIF file written using JARVIS-Tools package.
data_ScIO
_symmetry_space_group_name_H-M  'C2/m'
_cell_length_a       3.87251
_cell_length_b       7.23284
_cell_length_c       9.86289
_cell_angle_alpha    93.3816
_cell_angle_beta     101.317
_cell_angle_gamma    90.0007

_symmetry_Int_Tables_number  12
_chemical_formula_structural  ScIO
_chemical_formula_sum  Sc4I4O4
_cell_volume  270.3905851217546
_cell_formula_units_Z  4
loop_
  _symmetry_equiv_pos_site_id
 _symmetry_equiv_pos_as_xyz
 1  'x, y, z'
loop_
 _atom_site_type_symbol
 _atom_site_label
 _atom_site_symmetry_multiplicity
 _atom_site_fract_x
 _atom_site_fract_y
 _atom_site_fract_z
 _atom_site_fract_occupancy
 I  I1  1  0.10182  0.35177  0.20333  1
 I  I2  1  0.41663  0.15592  0.83367  1
 I  I3  1  0.58337  0.84408  0.16633  1
 I  I4  1  0.89818  0.64823  0.79667  1
 O  O1  1  0.24457  0.62806  0.48915  1
 O  O2  1  0.75571  0.87991  0.51143  1
 O  O3  1  0.75543  0.37194  0.51085  1
 O  O4  1  0.24429  0.12009  0.48857  1
 Sc  Sc1  1  0.29921  0.38391  0.59846  1
 Sc  Sc2  1  0.69932  0.11746  0.39859  1
 Sc  Sc3  1  0.70079  0.61609  0.40154  1
 Sc  Sc4  1  0.30068  0.88254  0.60141  1
