CIF file written using JARVIS-Tools package.
data_Mn
_symmetry_space_group_name_H-M  'I4_1/amd'
_cell_length_a       2.47053
_cell_length_b       3.32034
_cell_length_c       3.32034
_cell_angle_alpha    82.0443
_cell_angle_beta     68.1591
_cell_angle_gamma    68.1591

_symmetry_Int_Tables_number  141
_chemical_formula_structural  Mn
_chemical_formula_sum  Mn2
_cell_volume  23.466964680237215
_cell_formula_units_Z  2
loop_
  _symmetry_equiv_pos_site_id
 _symmetry_equiv_pos_as_xyz
 1  'x, y, z'
loop_
 _atom_site_type_symbol
 _atom_site_label
 _atom_site_symmetry_multiplicity
 _atom_site_fract_x
 _atom_site_fract_y
 _atom_site_fract_z
 _atom_site_fract_occupancy
 Mn  Mn1  1  0.25000  0.50000  0.50000  1
 Mn  Mn2  1  0.00000  0.00000  0.00000  1
