CIF file written using JARVIS-Tools package.
data_Mg3Ga
_symmetry_space_group_name_H-M  'Pmm2'
_cell_length_a       6.17026
_cell_length_b       3.20338
_cell_length_c       4.95156
_cell_angle_alpha    90
_cell_angle_beta     90
_cell_angle_gamma    121.276

_symmetry_Int_Tables_number  25
_chemical_formula_structural  Mg3Ga
_chemical_formula_sum  Mg3Ga
_cell_volume  83.64788892453144
_cell_formula_units_Z  1
loop_
  _symmetry_equiv_pos_site_id
 _symmetry_equiv_pos_as_xyz
 1  'x, y, z'
loop_
 _atom_site_type_symbol
 _atom_site_label
 _atom_site_symmetry_multiplicity
 _atom_site_fract_x
 _atom_site_fract_y
 _atom_site_fract_z
 _atom_site_fract_occupancy
 Ga  Ga1  1  0.16919  0.66919  0.25000  1
 Mg  Mg1  1  0.67158  0.67158  0.25000  1
 Mg  Mg2  1  0.32459  0.32459  0.75000  1
 Mg  Mg3  1  0.83464  0.33464  0.75000  1
