CIF file written using JARVIS-Tools package.
data_SnH10Cl4O5
_symmetry_space_group_name_H-M  'C2/c'
_cell_length_a       7.87388
_cell_length_b       7.87388
_cell_length_c       8.58531
_cell_angle_alpha    77.9992
_cell_angle_beta     102.001
_cell_angle_gamma    103.844

_symmetry_Int_Tables_number  15
_chemical_formula_structural  SnH10Cl4O5
_chemical_formula_sum  Sn2H20Cl8O0
_cell_volume  498.4534448360868
_cell_formula_units_Z  2
loop_
  _symmetry_equiv_pos_site_id
 _symmetry_equiv_pos_as_xyz
 1  'x, y, z'
loop_
 _atom_site_type_symbol
 _atom_site_label
 _atom_site_symmetry_multiplicity
 _atom_site_fract_x
 _atom_site_fract_y
 _atom_site_fract_z
 _atom_site_fract_occupancy
 Cl  Cl1  1  0.58633  0.86770  0.90188  1
 Cl  Cl2  1  0.02189  0.79061  0.93832  1
 Cl  Cl3  1  0.20939  0.97811  0.43832  1
 Cl  Cl4  1  0.13230  0.41367  0.40188  1
 Cl  Cl5  1  0.86770  0.58633  0.59812  1
 Cl  Cl6  1  0.41367  0.13230  0.09812  1
 Cl  Cl7  1  0.79061  0.02189  0.56168  1
 Cl  Cl8  1  0.97811  0.20939  0.06168  1
 H  H1  1  0.42866  0.86917  0.25039  1
 H  H2  1  0.30616  0.53187  0.98601  1
 H  H3  1  0.13083  0.57134  0.75039  1
 H  H4  1  0.21004  0.39809  0.77849  1
 H  H5  1  0.38556  0.61715  0.66407  1
 H  H6  1  0.60191  0.78996  0.27849  1
 H  H7  1  0.46813  0.69384  0.48601  1
 H  H8  1  0.09190  0.15682  0.65792  1
 H  H9  1  0.86917  0.42866  0.24961  1
 H  H10  1  0.57134  0.13083  0.74961  1
 H  H11  1  0.61444  0.38285  0.33593  1
 H  H12  1  0.53187  0.30616  0.51399  1
 H  H13  1  0.39809  0.21004  0.72151  1
 H  H14  1  0.38285  0.61444  0.16407  1
 H  H15  1  0.61715  0.38556  0.83593  1
 H  H16  1  0.84318  0.90810  0.15792  1
 H  H17  1  0.69384  0.46813  0.01399  1
 H  H18  1  0.78996  0.60191  0.22151  1
 H  H19  1  0.15682  0.09190  0.84208  1
 H  H20  1  0.90810  0.84318  0.34208  1
 O  O1  1  0.65437  0.49265  0.89273  1
 O  O2  1  0.18544  0.18544  0.75000  1
 O  O3  1  0.81456  0.81456  0.25000  1
 O  O4  1  0.34563  0.50735  0.10727  1
 O  O5  1  0.49265  0.65437  0.60727  1
 O  O6  1  0.75788  0.47289  0.21013  1
 O  O7  1  0.24212  0.52711  0.78987  1
 O  O8  1  0.52711  0.24212  0.71013  1
 O  O9  1  0.50735  0.34563  0.39273  1
 O  O10  1  0.47289  0.75788  0.28987  1
 Sn  Sn1  1  0.25675  0.25675  0.25000  1
 Sn  Sn2  1  0.74325  0.74325  0.75000  1
