CIF file written using JARVIS-Tools package.
data_Mg3Si
_symmetry_space_group_name_H-M  'Pmm2'
_cell_length_a       6.07099
_cell_length_b       3.18867
_cell_length_c       4.86035
_cell_angle_alpha    90
_cell_angle_beta     90
_cell_angle_gamma    121.684

_symmetry_Int_Tables_number  25
_chemical_formula_structural  Mg3Si
_chemical_formula_sum  Mg3Si
_cell_volume  80.0655901108556
_cell_formula_units_Z  1
loop_
  _symmetry_equiv_pos_site_id
 _symmetry_equiv_pos_as_xyz
 1  'x, y, z'
loop_
 _atom_site_type_symbol
 _atom_site_label
 _atom_site_symmetry_multiplicity
 _atom_site_fract_x
 _atom_site_fract_y
 _atom_site_fract_z
 _atom_site_fract_occupancy
 Mg  Mg1  1  0.67276  0.67276  0.25000  1
 Mg  Mg2  1  0.32360  0.32360  0.75000  1
 Mg  Mg3  1  0.83792  0.33792  0.75000  1
 Si  Si1  1  0.16573  0.66573  0.25000  1
