CIF file written using JARVIS-Tools package.
data_AgClO2
_symmetry_space_group_name_H-M  'P1'
_cell_length_a       5.48622
_cell_length_b       8.85371
_cell_length_c       7.1178
_cell_angle_alpha    24.5118
_cell_angle_beta     55.8356
_cell_angle_gamma    63.96

_symmetry_Int_Tables_number  1
_chemical_formula_structural  AgClO2
_chemical_formula_sum  Ag2Cl2O4
_cell_volume  116.04915332333428
_cell_formula_units_Z  2
loop_
  _symmetry_equiv_pos_site_id
 _symmetry_equiv_pos_as_xyz
 1  'x, y, z'
loop_
 _atom_site_type_symbol
 _atom_site_label
 _atom_site_symmetry_multiplicity
 _atom_site_fract_x
 _atom_site_fract_y
 _atom_site_fract_z
 _atom_site_fract_occupancy
 Ag  Ag1  1  0.65742  0.71962  0.25035  1
 Ag  Ag2  1  0.46695  0.93406  0.57603  1
 Cl  Cl1  1  0.14541  0.16737  0.82793  1
 Cl  Cl2  1  0.98599  0.37574  0.10341  1
 O  O1  1  0.31248  0.23113  0.07455  1
 O  O2  1  0.14394  0.16024  0.61179  1
 O  O3  1  0.78041  0.80993  0.38758  1
 O  O4  1  0.53343  0.58608  0.17266  1
