CIF file written using JARVIS-Tools package.
data_Li2FeO2F
_symmetry_space_group_name_H-M  'Cc'
_cell_length_a       5.02459
_cell_length_b       5.02459
_cell_length_c       5.16766
_cell_angle_alpha    78.1119
_cell_angle_beta     101.888
_cell_angle_gamma    62.2924

_symmetry_Int_Tables_number  9
_chemical_formula_structural  Li2FeO2F
_chemical_formula_sum  Li4Fe2O4F2
_cell_volume  105.94845565809842
_cell_formula_units_Z  2
loop_
  _symmetry_equiv_pos_site_id
 _symmetry_equiv_pos_as_xyz
 1  'x, y, z'
loop_
 _atom_site_type_symbol
 _atom_site_label
 _atom_site_symmetry_multiplicity
 _atom_site_fract_x
 _atom_site_fract_y
 _atom_site_fract_z
 _atom_site_fract_occupancy
 F  F1  1  0.66336  0.16761  0.98670  1
 F  F2  1  0.83239  0.33664  0.48670  1
 Fe  Fe1  1  0.93116  0.86557  0.74652  1
 Fe  Fe2  1  0.13443  0.06884  0.24652  1
 Li  Li1  1  0.25306  0.24552  0.74610  1
 Li  Li2  1  0.56442  0.59848  0.77045  1
 Li  Li3  1  0.40152  0.43558  0.27045  1
 Li  Li4  1  0.75448  0.74694  0.24610  1
 O  O1  1  0.15208  0.70645  0.49397  1
 O  O2  1  0.29355  0.84792  0.99397  1
 O  O3  1  0.00442  0.48485  0.00626  1
 O  O4  1  0.51515  -0.00442  0.50626  1
