CIF file written using JARVIS-Tools package.
data_NiPS3
_symmetry_space_group_name_H-M  'C2/m'
_cell_length_a       5.82744
_cell_length_b       5.82612
_cell_length_c       6.53991
_cell_angle_alpha    81.3955
_cell_angle_beta     72.5935
_cell_angle_gamma    59.9924

_symmetry_Int_Tables_number  12
_chemical_formula_structural  NiPS3
_chemical_formula_sum  Ni2P2S6
_cell_volume  183.4712459817801
_cell_formula_units_Z  2
loop_
  _symmetry_equiv_pos_site_id
 _symmetry_equiv_pos_as_xyz
 1  'x, y, z'
loop_
 _atom_site_type_symbol
 _atom_site_label
 _atom_site_symmetry_multiplicity
 _atom_site_fract_x
 _atom_site_fract_y
 _atom_site_fract_z
 _atom_site_fract_occupancy
 Ni  Ni1  1  0.33291  0.33417  0.00000  1
 Ni  Ni2  1  0.66709  0.66583  -0.00000  1
 P  P1  1  0.06003  0.00000  0.82448  1
 P  P2  1  0.93997  1.00000  0.17552  1
 S  S1  1  0.08207  0.34595  0.75689  1
 S  S2  1  0.57198  0.34595  0.24312  1
 S  S3  1  0.26352  1.00000  0.24319  1
 S  S4  1  0.73648  0.00000  0.75681  1
 S  S5  1  0.42802  0.65405  0.75688  1
 S  S6  1  0.91793  0.65405  0.24311  1
