CIF file written using JARVIS-Tools package.
data_LiNiC2O6
_symmetry_space_group_name_H-M  'P2_1'
_cell_length_a       4.8185
_cell_length_b       7.67121
_cell_length_c       6.24263
_cell_angle_alpha    90
_cell_angle_beta     105.963
_cell_angle_gamma    90

_symmetry_Int_Tables_number  4
_chemical_formula_structural  LiNiC2O6
_chemical_formula_sum  Li2Ni2C4O2
_cell_volume  221.85256282032802
_cell_formula_units_Z  2
loop_
  _symmetry_equiv_pos_site_id
 _symmetry_equiv_pos_as_xyz
 1  'x, y, z'
loop_
 _atom_site_type_symbol
 _atom_site_label
 _atom_site_symmetry_multiplicity
 _atom_site_fract_x
 _atom_site_fract_y
 _atom_site_fract_z
 _atom_site_fract_occupancy
 C  C1  1  0.13455  0.26005  0.11700  1
 C  C2  1  0.14377  0.24424  0.61123  1
 C  C3  1  0.86545  0.76005  0.88300  1
 C  C4  1  0.85623  0.74424  0.38877  1
 Li  Li1  1  0.64923  0.04701  0.64200  1
 Li  Li2  1  0.35077  0.54701  0.35800  1
 Ni  Ni1  1  0.00165  0.00031  0.24415  1
 Ni  Ni2  1  -0.00165  0.50031  0.75585  1
 O  O1  1  0.27965  0.11662  0.12569  1
 O  O2  1  0.75697  0.60270  0.44234  1
 O  O3  1  0.10737  0.73512  0.83129  1
 O  O4  1  0.89263  0.23512  0.16871  1
 O  O5  1  0.22145  0.40915  0.07352  1
 O  O6  1  0.09605  0.75530  0.33066  1
 O  O7  1  0.27436  0.39429  0.61900  1
 O  O8  1  0.24303  0.10270  0.55766  1
 O  O9  1  0.77855  0.90915  0.92648  1
 O  O10  1  0.90395  0.25530  0.66934  1
 O  O11  1  0.72035  0.61662  0.87431  1
 O  O12  1  0.72564  0.89429  0.38100  1
