CIF file written using JARVIS-Tools package.
data_ErTlO2
_symmetry_space_group_name_H-M  'R-3m'
_cell_length_a       3.45175
_cell_length_b       6.75314
_cell_length_c       3.45174
_cell_angle_alpha    104.807
_cell_angle_beta     60
_cell_angle_gamma    104.807

_symmetry_Int_Tables_number  166
_chemical_formula_structural  ErTlO2
_chemical_formula_sum  ErTlO2
_cell_volume  66.57776307112468
_cell_formula_units_Z  1
loop_
  _symmetry_equiv_pos_site_id
 _symmetry_equiv_pos_as_xyz
 1  'x, y, z'
loop_
 _atom_site_type_symbol
 _atom_site_label
 _atom_site_symmetry_multiplicity
 _atom_site_fract_x
 _atom_site_fract_y
 _atom_site_fract_z
 _atom_site_fract_occupancy
 Er  Er1  1  0.50000  0.50000  0.50000  1
 O  O1  1  0.22379  0.67136  0.22379  1
 O  O2  1  0.77621  0.32864  0.77621  1
 Tl  Tl1  1  0.00000  0.00000  0.00000  1
