CIF file written using JARVIS-Tools package.
data_KHO
_symmetry_space_group_name_H-M  'Cmc2_1'
_cell_length_a       5.60426
_cell_length_b       3.95466
_cell_length_c       5.60426
_cell_angle_alpha    90
_cell_angle_beta     41.1752
_cell_angle_gamma    90

_symmetry_Int_Tables_number  36
_chemical_formula_structural  KHO
_chemical_formula_sum  K2H2O2
_cell_volume  81.77323575481124
_cell_formula_units_Z  2
loop_
  _symmetry_equiv_pos_site_id
 _symmetry_equiv_pos_as_xyz
 1  'x, y, z'
loop_
 _atom_site_type_symbol
 _atom_site_label
 _atom_site_symmetry_multiplicity
 _atom_site_fract_x
 _atom_site_fract_y
 _atom_site_fract_z
 _atom_site_fract_occupancy
 H  H1  1  0.03249  0.09718  0.03249  1
 H  H2  1  0.96751  0.59718  0.96751  1
 K  K1  1  0.35902  0.23792  0.35902  1
 K  K2  1  0.64098  0.73792  0.64098  1
 O  O1  1  0.10418  0.25948  0.10418  1
 O  O2  1  0.89582  0.75948  0.89582  1
