CIF file written using JARVIS-Tools package.
data_Ti3Ga
_symmetry_space_group_name_H-M  'P6/mmm'
_cell_length_a       5.43856
_cell_length_b       5.43856
_cell_length_c       5.46199
_cell_angle_alpha    90
_cell_angle_beta     90
_cell_angle_gamma    120

_symmetry_Int_Tables_number  191
_chemical_formula_structural  Ti3Ga
_chemical_formula_sum  Ti6Ga2
_cell_volume  139.91032213402
_cell_formula_units_Z  2
loop_
  _symmetry_equiv_pos_site_id
 _symmetry_equiv_pos_as_xyz
 1  'x, y, z'
loop_
 _atom_site_type_symbol
 _atom_site_label
 _atom_site_symmetry_multiplicity
 _atom_site_fract_x
 _atom_site_fract_y
 _atom_site_fract_z
 _atom_site_fract_occupancy
 Ga  Ga1  1  0.00000  0.00000  0.00000  1
 Ga  Ga2  1  0.00000  0.00000  0.50000  1
 Ti  Ti1  1  0.50000  0.50000  0.00000  1
 Ti  Ti2  1  0.50000  0.50000  0.50000  1
 Ti  Ti3  1  0.00000  0.50000  0.50000  1
 Ti  Ti4  1  0.00000  0.50000  0.00000  1
 Ti  Ti5  1  0.50000  0.00000  0.50000  1
 Ti  Ti6  1  0.50000  0.00000  0.00000  1
