CIF file written using JARVIS-Tools package.
data_AgCO3
_symmetry_space_group_name_H-M  'R-3c'
_cell_length_a       6.05083
_cell_length_b       6.05083
_cell_length_c       6.05083
_cell_angle_alpha    48.8987
_cell_angle_beta     48.8987
_cell_angle_gamma    48.8987

_symmetry_Int_Tables_number  167
_chemical_formula_structural  AgCO3
_chemical_formula_sum  Ag2C2O6
_cell_volume  115.47764034733628
_cell_formula_units_Z  2
loop_
  _symmetry_equiv_pos_site_id
 _symmetry_equiv_pos_as_xyz
 1  'x, y, z'
loop_
 _atom_site_type_symbol
 _atom_site_label
 _atom_site_symmetry_multiplicity
 _atom_site_fract_x
 _atom_site_fract_y
 _atom_site_fract_z
 _atom_site_fract_occupancy
 Ag  Ag1  1  0.00000  0.00000  0.00000  1
 Ag  Ag2  1  0.50000  0.50000  0.50000  1
 C  C1  1  0.25000  0.25000  0.25000  1
 C  C2  1  0.75000  0.75000  0.75000  1
 O  O1  1  0.25000  0.99193  0.50807  1
 O  O2  1  0.00807  0.49193  0.75000  1
 O  O3  1  0.49193  0.75000  0.00807  1
 O  O4  1  0.50807  0.25000  0.99193  1
 O  O5  1  0.99193  0.50807  0.25000  1
 O  O6  1  0.75000  0.00807  0.49193  1
