CIF file written using JARVIS-Tools package.
data_Na2MnCl4
_symmetry_space_group_name_H-M  'Pbam'
_cell_length_a       3.82693
_cell_length_b       6.90094
_cell_length_c       11.8275
_cell_angle_alpha    90
_cell_angle_beta     90
_cell_angle_gamma    90

_symmetry_Int_Tables_number  55
_chemical_formula_structural  Na2MnCl4
_chemical_formula_sum  Na4Mn2Cl8
_cell_volume  312.3582020444747
_cell_formula_units_Z  2
loop_
  _symmetry_equiv_pos_site_id
 _symmetry_equiv_pos_as_xyz
 1  'x, y, z'
loop_
 _atom_site_type_symbol
 _atom_site_label
 _atom_site_symmetry_multiplicity
 _atom_site_fract_x
 _atom_site_fract_y
 _atom_site_fract_z
 _atom_site_fract_occupancy
 Cl  Cl1  1  0.50000  0.74102  0.54449  1
 Cl  Cl2  1  0.50000  0.25898  0.45551  1
 Cl  Cl3  1  0.00000  0.12073  0.19791  1
 Cl  Cl4  1  0.00000  0.87927  0.80209  1
 Cl  Cl5  1  0.00000  0.62073  0.30209  1
 Cl  Cl6  1  0.00000  0.37927  0.69791  1
 Cl  Cl7  1  0.50000  0.24102  0.95551  1
 Cl  Cl8  1  0.50000  0.75898  0.04449  1
 Mn  Mn1  1  0.00000  0.50000  0.50000  1
 Mn  Mn2  1  0.00000  0.00000  0.00000  1
 Na  Na1  1  0.50000  0.08661  0.67989  1
 Na  Na2  1  0.50000  0.91339  0.32011  1
 Na  Na3  1  0.50000  0.41339  0.17989  1
 Na  Na4  1  0.50000  0.58661  0.82011  1
