CIF file written using JARVIS-Tools package.
data_CdI2
_symmetry_space_group_name_H-M  'P3m1'
_cell_length_a       4.28722
_cell_length_b       4.28722
_cell_length_c       82.5191
_cell_angle_alpha    90
_cell_angle_beta     90
_cell_angle_gamma    120

_symmetry_Int_Tables_number  156
_chemical_formula_structural  CdI2
_chemical_formula_sum  Cd2I24
_cell_volume  1313.5187765313367
_cell_formula_units_Z  12
loop_
  _symmetry_equiv_pos_site_id
 _symmetry_equiv_pos_as_xyz
 1  'x, y, z'
loop_
 _atom_site_type_symbol
 _atom_site_label
 _atom_site_symmetry_multiplicity
 _atom_site_fract_x
 _atom_site_fract_y
 _atom_site_fract_z
 _atom_site_fract_occupancy
 Cd  Cd1  1  0.33333  0.66667  0.68750  1
 Cd  Cd2  1  0.66667  0.33333  0.02085  1
 Cd  Cd3  1  0.66667  0.33333  0.77083  1
 Cd  Cd4  1  0.33333  0.66667  0.27082  1
 Cd  Cd5  1  0.33333  0.66667  0.60416  1
 Cd  Cd6  1  0.33333  0.66667  0.18750  1
 Cd  Cd7  1  0.33333  0.66667  0.35418  1
 Cd  Cd8  1  0.33333  0.66667  0.85419  1
 Cd  Cd9  1  0.33333  0.66667  0.93748  1
 Cd  Cd10  1  0.33333  0.66667  0.43750  1
 Cd  Cd11  1  0.33333  0.66667  0.52084  1
 Cd  Cd12  1  0.33333  0.66667  0.10417  1
 I  I1  1  0.66667  0.33333  0.62517  1
 I  I2  1  0.00000  0.00000  0.16649  1
 I  I3  1  0.66667  0.33333  0.70851  1
 I  I4  1  0.33333  0.66667  0.79183  1
 I  I5  1  0.66667  0.33333  0.45850  1
 I  I6  1  0.00000  0.00000  0.41648  1
 I  I7  1  0.66667  0.33333  0.37518  1
 I  I8  1  0.00000  0.00000  0.24981  1
 I  I9  1  0.00000  0.00000  0.58315  1
 I  I10  1  0.00000  0.00000  0.66649  1
 I  I11  1  0.66667  0.33333  0.12517  1
 I  I12  1  0.66667  0.33333  0.95849  1
 I  I13  1  0.00000  0.00000  0.83317  1
 I  I14  1  0.33333  0.66667  0.04185  1
 I  I15  1  0.00000  0.00000  0.49983  1
 I  I16  1  0.00000  0.00000  0.08315  1
 I  I17  1  0.66667  0.33333  0.20851  1
 I  I18  1  0.00000  0.00000  0.33317  1
 I  I19  1  0.66667  0.33333  0.29183  1
 I  I20  1  0.00000  0.00000  0.74982  1
 I  I21  1  0.66667  0.33333  0.54185  1
 I  I22  1  0.00000  0.00000  0.91647  1
 I  I23  1  0.66667  0.33333  0.87519  1
 I  I24  1  0.00000  0.00000  0.99983  1
