CIF file written using JARVIS-Tools package.
data_NaSi6
_symmetry_space_group_name_H-M  'P6/m'
_cell_length_a       7.16208
_cell_length_b       7.16208
_cell_length_c       2.56667
_cell_angle_alpha    90
_cell_angle_beta     90
_cell_angle_gamma    120

_symmetry_Int_Tables_number  175
_chemical_formula_structural  NaSi6
_chemical_formula_sum  NaSi6
_cell_volume  114.01918280643389
_cell_formula_units_Z  1
loop_
  _symmetry_equiv_pos_site_id
 _symmetry_equiv_pos_as_xyz
 1  'x, y, z'
loop_
 _atom_site_type_symbol
 _atom_site_label
 _atom_site_symmetry_multiplicity
 _atom_site_fract_x
 _atom_site_fract_y
 _atom_site_fract_z
 _atom_site_fract_occupancy
 Na  Na1  1  0.00000  0.00000  0.50000  1
 Si  Si1  1  0.14613  0.70559  0.00000  1
 Si  Si2  1  0.29441  0.44054  0.00000  1
 Si  Si3  1  0.55946  0.85387  0.00000  1
 Si  Si4  1  0.85387  0.29441  0.00000  1
 Si  Si5  1  0.70559  0.55946  0.00000  1
 Si  Si6  1  0.44054  0.14613  0.00000  1
