CIF file written using JARVIS-Tools package.
data_NaMg3
_symmetry_space_group_name_H-M  'Pmm2'
_cell_length_a       6.67665
_cell_length_b       3.21544
_cell_length_c       5.29259
_cell_angle_alpha    90
_cell_angle_beta     90
_cell_angle_gamma    118.79

_symmetry_Int_Tables_number  25
_chemical_formula_structural  NaMg3
_chemical_formula_sum  NaMg3
_cell_volume  99.57868666983987
_cell_formula_units_Z  1
loop_
  _symmetry_equiv_pos_site_id
 _symmetry_equiv_pos_as_xyz
 1  'x, y, z'
loop_
 _atom_site_type_symbol
 _atom_site_label
 _atom_site_symmetry_multiplicity
 _atom_site_fract_x
 _atom_site_fract_y
 _atom_site_fract_z
 _atom_site_fract_occupancy
 Mg  Mg1  1  0.65896  0.65896  0.25000  1
 Mg  Mg2  1  0.34941  0.34941  0.75000  1
 Mg  Mg3  1  0.83296  0.33296  0.75000  1
 Na  Na1  1  0.15867  0.65867  0.25000  1
