CIF file written using JARVIS-Tools package.
data_H12PbC8O4
_symmetry_space_group_name_H-M  'P1'
_cell_length_a       3.94134
_cell_length_b       4.36307
_cell_length_c       13.1005
_cell_angle_alpha    91.5967
_cell_angle_beta     97.3816
_cell_angle_gamma    100.833

_symmetry_Int_Tables_number  1
_chemical_formula_structural  H12PbC8O4
_chemical_formula_sum  H2PbC8O4
_cell_volume  219.1203275013728
_cell_formula_units_Z  1
loop_
  _symmetry_equiv_pos_site_id
 _symmetry_equiv_pos_as_xyz
 1  'x, y, z'
loop_
 _atom_site_type_symbol
 _atom_site_label
 _atom_site_symmetry_multiplicity
 _atom_site_fract_x
 _atom_site_fract_y
 _atom_site_fract_z
 _atom_site_fract_occupancy
 C  C1  1  0.60806  0.26267  0.99046  1
 C  C2  1  0.87884  0.28414  0.17919  1
 C  C3  1  0.01038  0.49781  0.27628  1
 C  C4  1  0.11745  0.32217  0.37075  1
 C  C5  1  0.19079  0.52358  0.47145  1
 C  C6  1  0.27402  0.33312  0.56509  1
 C  C7  1  0.26103  0.50282  0.66617  1
 C  C8  1  0.77166  0.46635  0.08616  1
 H  H1  1  0.90612  0.12062  0.37794  1
 H  H2  1  0.53423  0.27307  0.56706  1
 H  H3  1  0.99446  0.63818  0.06764  1
 H  H4  1  0.80287  0.62338  0.29290  1
 H  H5  1  0.23184  0.68143  0.26205  1
 H  H6  1  0.34745  0.22044  0.35927  1
 H  H7  1  0.40585  0.72451  0.46836  1
 H  H8  1  0.65347  0.10600  0.19354  1
 H  H9  1  0.08138  0.15537  0.16109  1
 H  H10  1  0.08509  0.11135  0.56045  1
 H  H11  1  0.57515  0.60244  0.10437  1
 H  H12  1  -0.04149  0.62453  0.48051  1
 O  O1  1  0.44657  0.77530  0.68873  1
 O  O2  1  0.39176  0.01263  -0.00039  1
 O  O3  1  0.68802  0.34654  0.90164  1
 O  O4  1  0.04701  0.37674  0.72542  1
 Pb  Pb1  1  -0.00557  0.87678  0.82637  1
