CIF file written using JARVIS-Tools package.
data_CaSb2O4
_symmetry_space_group_name_H-M  'I-4'
_cell_length_a       6.75481
_cell_length_b       6.75488
_cell_length_c       6.75491
_cell_angle_alpha    113.67
_cell_angle_beta     113.675
_cell_angle_gamma    101.358

_symmetry_Int_Tables_number  82
_chemical_formula_structural  CaSb2O4
_chemical_formula_sum  Ca2Sb4O8
_cell_volume  233.77645642765972
_cell_formula_units_Z  2
loop_
  _symmetry_equiv_pos_site_id
 _symmetry_equiv_pos_as_xyz
 1  'x, y, z'
loop_
 _atom_site_type_symbol
 _atom_site_label
 _atom_site_symmetry_multiplicity
 _atom_site_fract_x
 _atom_site_fract_y
 _atom_site_fract_z
 _atom_site_fract_occupancy
 Ca  Ca1  1  0.12524  0.87523  0.75000  1
 Ca  Ca2  1  0.87501  0.12500  0.25000  1
 O  O1  1  0.70260  0.32088  0.00928  1
 O  O2  1  0.31160  0.19334  0.49075  1
 O  O3  1  0.80657  0.29731  0.61823  1
 O  O4  1  0.05783  0.17464  0.00333  1
 O  O5  1  0.17132  0.55450  0.49666  1
 O  O6  1  0.82536  0.82869  0.38319  1
 O  O7  1  0.67906  0.68834  -0.11827  1
 O  O8  1  0.44549  0.94214  0.11683  1
 Sb  Sb1  1  0.50939  0.00065  0.45109  1
 Sb  Sb2  1  0.44168  0.49055  0.49126  1
 Sb  Sb3  1  -0.00072  0.45039  0.00871  1
 Sb  Sb4  1  0.54958  0.55836  0.04895  1
