CIF file written using JARVIS-Tools package.
data_Mg3Nb
_symmetry_space_group_name_H-M  'Pmm2'
_cell_length_a       6.31458
_cell_length_b       2.86856
_cell_length_c       5.05079
_cell_angle_alpha    90
_cell_angle_beta     90
_cell_angle_gamma    117.018

_symmetry_Int_Tables_number  25
_chemical_formula_structural  Mg3Nb
_chemical_formula_sum  Mg3Nb
_cell_volume  81.5036455998147
_cell_formula_units_Z  1
loop_
  _symmetry_equiv_pos_site_id
 _symmetry_equiv_pos_as_xyz
 1  'x, y, z'
loop_
 _atom_site_type_symbol
 _atom_site_label
 _atom_site_symmetry_multiplicity
 _atom_site_fract_x
 _atom_site_fract_y
 _atom_site_fract_z
 _atom_site_fract_occupancy
 Mg  Mg1  1  0.64977  0.64977  0.25000  1
 Mg  Mg2  1  0.33145  0.33145  0.75000  1
 Mg  Mg3  1  0.86663  0.36663  0.75000  1
 Nb  Nb1  1  0.15215  0.65215  0.25000  1
