CIF file written using JARVIS-Tools package.
data_SbO2F
_symmetry_space_group_name_H-M  'C2/c'
_cell_length_a       5.17771
_cell_length_b       5.31073
_cell_length_c       5.17771
_cell_angle_alpha    116.583
_cell_angle_beta     56.4974
_cell_angle_gamma    116.583

_symmetry_Int_Tables_number  15
_chemical_formula_structural  SbO2F
_chemical_formula_sum  Sb2O4F2
_cell_volume  102.26079070951879
_cell_formula_units_Z  2
loop_
  _symmetry_equiv_pos_site_id
 _symmetry_equiv_pos_as_xyz
 1  'x, y, z'
loop_
 _atom_site_type_symbol
 _atom_site_label
 _atom_site_symmetry_multiplicity
 _atom_site_fract_x
 _atom_site_fract_y
 _atom_site_fract_z
 _atom_site_fract_occupancy
 F  F1  1  0.10287  0.25000  0.39713  1
 F  F2  1  0.89713  0.75000  0.60287  1
 O  O1  1  0.24320  0.74644  0.89588  1
 O  O2  1  0.60412  0.75356  0.25680  1
 O  O3  1  0.39588  0.24644  0.74320  1
 O  O4  1  0.75680  0.25356  0.10412  1
 Sb  Sb1  1  0.00000  0.00000  0.00000  1
 Sb  Sb2  1  0.50000  0.50000  0.50000  1
