CIF file written using JARVIS-Tools package.
data_CS2NF5
_symmetry_space_group_name_H-M  'P-1'
_cell_length_a       4.78187
_cell_length_b       7.18375
_cell_length_c       7.74826
_cell_angle_alpha    96.4769
_cell_angle_beta     90.6501
_cell_angle_gamma    89.4443

_symmetry_Int_Tables_number  2
_chemical_formula_structural  CS2NF5
_chemical_formula_sum  C2S4N2F0
_cell_volume  264.4412127970645
_cell_formula_units_Z  2
loop_
  _symmetry_equiv_pos_site_id
 _symmetry_equiv_pos_as_xyz
 1  'x, y, z'
loop_
 _atom_site_type_symbol
 _atom_site_label
 _atom_site_symmetry_multiplicity
 _atom_site_fract_x
 _atom_site_fract_y
 _atom_site_fract_z
 _atom_site_fract_occupancy
 C  C1  1  0.62788  0.48434  0.21953  1
 C  C2  1  0.37212  0.51566  0.78047  1
 F  F1  1  0.37157  0.13697  0.64348  1
 F  F2  1  0.74008  0.91231  0.07984  1
 F  F3  1  0.15736  0.76415  0.10661  1
 F  F4  1  0.25992  0.08769  0.92016  1
 F  F5  1  0.95185  0.28713  0.61620  1
 F  F6  1  0.84264  0.23585  0.89339  1
 F  F7  1  0.96905  -0.00355  0.69796  1
 F  F8  1  0.04815  0.71287  0.38380  1
 F  F9  1  0.03095  0.00355  0.30204  1
 F  F10  1  0.62843  0.86303  0.35652  1
 N  N1  1  0.25310  0.39654  0.85427  1
 N  N2  1  0.74690  0.60346  0.14573  1
 S  S1  1  0.52615  0.67611  0.70656  1
 S  S2  1  0.47385  0.32389  0.29344  1
 S  S3  1  0.88937  0.80681  0.22807  1
 S  S4  1  0.11063  0.19319  0.77193  1
