CIF file written using JARVIS-Tools package.
data_BiTeIO3
_symmetry_space_group_name_H-M  'P2_1/c'
_cell_length_a       7.10056
_cell_length_b       8.06433
_cell_length_c       9.14492
_cell_angle_alpha    104.245
_cell_angle_beta     90
_cell_angle_gamma    90

_symmetry_Int_Tables_number  14
_chemical_formula_structural  BiTeIO3
_chemical_formula_sum  Bi4Te4I4O2
_cell_volume  507.54758535180343
_cell_formula_units_Z  4
loop_
  _symmetry_equiv_pos_site_id
 _symmetry_equiv_pos_as_xyz
 1  'x, y, z'
loop_
 _atom_site_type_symbol
 _atom_site_label
 _atom_site_symmetry_multiplicity
 _atom_site_fract_x
 _atom_site_fract_y
 _atom_site_fract_z
 _atom_site_fract_occupancy
 Bi  Bi1  1  0.13343  0.67271  0.40585  1
 Bi  Bi2  1  0.86657  0.32729  0.59415  1
 Bi  Bi3  1  0.63343  0.82729  0.59415  1
 Bi  Bi4  1  0.36657  0.17271  0.40585  1
 I  I1  1  0.34029  0.85420  0.13014  1
 I  I2  1  0.84029  0.64580  0.86986  1
 I  I3  1  0.65971  0.14580  0.86986  1
 I  I4  1  0.15971  0.35420  0.13014  1
 O  O1  1  0.49330  0.62500  0.38897  1
 O  O2  1  0.87971  0.77078  0.28712  1
 O  O3  1  0.50670  0.37500  0.61103  1
 O  O4  1  0.65169  0.03134  0.43477  1
 O  O5  1  0.15169  0.46866  0.56523  1
 O  O6  1  0.12029  0.22922  0.71288  1
 O  O7  1  0.00670  0.12500  0.38897  1
 O  O8  1  0.34831  0.96866  0.56523  1
 O  O9  1  0.99330  0.87500  0.61103  1
 O  O10  1  0.62029  0.27078  0.28712  1
 O  O11  1  0.84831  0.53134  0.43477  1
 O  O12  1  0.37971  0.72922  0.71288  1
 Te  Te1  1  0.67974  0.49329  0.26118  1
 Te  Te2  1  0.17974  0.00671  0.73882  1
 Te  Te3  1  0.82026  0.99329  0.26118  1
 Te  Te4  1  0.32026  0.50671  0.73882  1
