CIF file written using JARVIS-Tools package.
data_H12PbC8O4
_symmetry_space_group_name_H-M  'P-1'
_cell_length_a       3.98277
_cell_length_b       4.32945
_cell_length_c       12.9656
_cell_angle_alpha    90.6921
_cell_angle_beta     93.6714
_cell_angle_gamma    103.09

_symmetry_Int_Tables_number  2
_chemical_formula_structural  H12PbC8O4
_chemical_formula_sum  H2PbC8O4
_cell_volume  217.23004669402837
_cell_formula_units_Z  1
loop_
  _symmetry_equiv_pos_site_id
 _symmetry_equiv_pos_as_xyz
 1  'x, y, z'
loop_
 _atom_site_type_symbol
 _atom_site_label
 _atom_site_symmetry_multiplicity
 _atom_site_fract_x
 _atom_site_fract_y
 _atom_site_fract_z
 _atom_site_fract_occupancy
 C  C1  1  0.62271  0.25629  0.99377  1
 C  C2  1  0.82533  0.26927  0.18386  1
 C  C3  1  0.95060  0.48203  0.28006  1
 C  C4  1  0.05278  0.30302  0.37348  1
 C  C5  1  0.17792  0.51579  0.46969  1
 C  C6  1  0.27382  0.32697  0.56204  1
 C  C7  1  0.38042  0.52891  0.65979  1
 C  C8  1  0.72951  0.45818  0.09152  1
 H  H1  1  0.82949  0.11257  0.39166  1
 H  H2  1  0.49246  0.22165  0.54482  1
 H  H3  1  0.94730  0.65525  0.07647  1
 H  H4  1  0.74719  0.60432  0.30019  1
 H  H5  1  0.17392  0.67243  0.26187  1
 H  H6  1  0.25625  0.18079  0.35337  1
 H  H7  1  0.40337  0.70501  0.45303  1
 H  H8  1  0.59981  0.08014  0.20053  1
 H  H9  1  0.02876  0.14823  0.16315  1
 H  H10  1  0.05611  0.12980  0.57707  1
 H  H11  1  0.51099  0.56363  0.10876  1
 H  H12  1  0.97439  0.63673  0.49039  1
 O  O1  1  0.61110  0.78403  0.65789  1
 O  O2  1  0.39206  0.00116  -0.00431  1
 O  O3  1  0.77344  0.34582  0.91045  1
 O  O4  1  0.22946  0.43942  0.74308  1
 Pb  Pb1  1  0.00164  0.89260  0.82678  1
