CIF file written using JARVIS-Tools package.
data_MnSbS2Cl
_symmetry_space_group_name_H-M  'Pnma'
_cell_length_a       3.82374
_cell_length_b       9.43217
_cell_length_c       12.2524
_cell_angle_alpha    90
_cell_angle_beta     90
_cell_angle_gamma    90

_symmetry_Int_Tables_number  62
_chemical_formula_structural  MnSbS2Cl
_chemical_formula_sum  Mn4Sb4S8Cl4
_cell_volume  441.8970177126768
_cell_formula_units_Z  4
loop_
  _symmetry_equiv_pos_site_id
 _symmetry_equiv_pos_as_xyz
 1  'x, y, z'
loop_
 _atom_site_type_symbol
 _atom_site_label
 _atom_site_symmetry_multiplicity
 _atom_site_fract_x
 _atom_site_fract_y
 _atom_site_fract_z
 _atom_site_fract_occupancy
 Cl  Cl1  1  0.25000  0.06394  0.61239  1
 Cl  Cl2  1  0.75000  0.43606  0.11239  1
 Cl  Cl3  1  0.25000  0.56394  0.88761  1
 Cl  Cl4  1  0.75000  0.93606  0.38761  1
 Mn  Mn1  1  0.25000  0.99730  0.26319  1
 Mn  Mn2  1  0.75000  0.50270  0.76319  1
 Mn  Mn3  1  0.25000  0.49730  0.23681  1
 Mn  Mn4  1  0.75000  0.00270  0.73681  1
 S  S1  1  0.25000  0.94840  0.88305  1
 S  S2  1  0.25000  0.25318  0.32319  1
 S  S3  1  0.25000  0.44840  0.61695  1
 S  S4  1  0.75000  0.24682  0.82319  1
 S  S5  1  0.75000  0.55160  0.38305  1
 S  S6  1  0.25000  0.75318  0.17681  1
 S  S7  1  0.75000  0.74682  0.67681  1
 S  S8  1  0.75000  0.05160  0.11695  1
 Sb  Sb1  1  0.75000  0.80646  0.03434  1
 Sb  Sb2  1  0.25000  0.19354  0.96566  1
 Sb  Sb3  1  0.25000  0.69354  0.53434  1
 Sb  Sb4  1  0.75000  0.30646  0.46566  1
