CIF file written using JARVIS-Tools package.
data_Li2NiO2
_symmetry_space_group_name_H-M  'R-3m'
_cell_length_a       3.05472
_cell_length_b       3.05472
_cell_length_c       6.43806
_cell_angle_alpha    76.2764
_cell_angle_beta     90
_cell_angle_gamma    60

_symmetry_Int_Tables_number  166
_chemical_formula_structural  Li2NiO2
_chemical_formula_sum  Li2NiO2
_cell_volume  50.03664788525269
_cell_formula_units_Z  1
loop_
  _symmetry_equiv_pos_site_id
 _symmetry_equiv_pos_as_xyz
 1  'x, y, z'
loop_
 _atom_site_type_symbol
 _atom_site_label
 _atom_site_symmetry_multiplicity
 _atom_site_fract_x
 _atom_site_fract_y
 _atom_site_fract_z
 _atom_site_fract_occupancy
 Li  Li1  1  0.76367  0.47266  0.29101  1
 Li  Li2  1  0.23633  0.52734  0.70899  1
 Ni  Ni1  1  0.00000  0.00000  0.00000  1
 O  O1  1  0.60270  0.79461  0.80809  1
 O  O2  1  0.39730  0.20539  0.19191  1
