CIF file written using JARVIS-Tools package.
data_V6O5F19
_symmetry_space_group_name_H-M  'P1'
_cell_length_a       5.53651
_cell_length_b       5.5323
_cell_length_c       12.571
_cell_angle_alpha    89.6991
_cell_angle_beta     102.692
_cell_angle_gamma    91.5914

_symmetry_Int_Tables_number  1
_chemical_formula_structural  V6O5F19
_chemical_formula_sum  V6O5F9
_cell_volume  375.49037271717367
_cell_formula_units_Z  1
loop_
  _symmetry_equiv_pos_site_id
 _symmetry_equiv_pos_as_xyz
 1  'x, y, z'
loop_
 _atom_site_type_symbol
 _atom_site_label
 _atom_site_symmetry_multiplicity
 _atom_site_fract_x
 _atom_site_fract_y
 _atom_site_fract_z
 _atom_site_fract_occupancy
 F  F1  1  0.59371  0.99138  0.19349  1
 F  F2  1  0.07748  0.25071  0.66762  1
 F  F3  1  0.06794  0.75486  0.66773  1
 F  F4  1  0.07002  0.97944  0.13936  1
 F  F5  1  0.93340  0.23051  0.33584  1
 F  F6  1  0.40277  0.98395  0.80499  1
 F  F7  1  0.08174  0.48583  0.19367  1
 F  F8  1  0.25508  0.98404  0.52725  1
 F  F9  1  0.42182  0.48298  0.86218  1
 F  F10  1  0.23231  0.49039  0.47321  1
 F  F11  1  0.42749  0.73394  0.33093  1
 F  F12  1  0.55979  0.48757  0.13893  1
 F  F13  1  0.72281  0.98793  0.47301  1
 F  F14  1  0.89676  0.48355  0.80736  1
 F  F15  1  0.75121  0.72968  0.99972  1
 F  F16  1  0.76403  0.48408  0.52502  1
 F  F17  1  0.93145  0.98220  0.86163  1
 F  F18  1  0.58708  0.77341  0.66490  1
 F  F19  1  0.74113  0.22225  0.00098  1
 O  O1  1  0.42345  0.25009  0.33209  1
 O  O2  1  0.21838  0.28444  0.00110  1
 O  O3  1  0.27046  0.78385  -0.00014  1
 O  O4  1  0.55545  0.27654  0.66494  1
 O  O5  1  0.92156  0.74649  0.33440  1
 V  V1  1  0.81475  0.53317  0.66615  1
 V  V2  1  0.72690  0.95586  0.33366  1
 V  V3  1  0.46563  0.56883  0.00032  1
 V  V4  1  0.34312  0.06190  0.66611  1
 V  V5  1  0.22643  0.45652  0.33294  1
 V  V6  1  0.01585  0.06360  0.00065  1
