CIF file written using JARVIS-Tools package.
data_PbSe2O6
_symmetry_space_group_name_H-M  'P2_1/c'
_cell_length_a       4.8685
_cell_length_b       8.84917
_cell_length_c       7.05034
_cell_angle_alpha    90
_cell_angle_beta     106.679
_cell_angle_gamma    90

_symmetry_Int_Tables_number  14
_chemical_formula_structural  PbSe2O6
_chemical_formula_sum  Pb2Se4O2
_cell_volume  290.9654757569272
_cell_formula_units_Z  2
loop_
  _symmetry_equiv_pos_site_id
 _symmetry_equiv_pos_as_xyz
 1  'x, y, z'
loop_
 _atom_site_type_symbol
 _atom_site_label
 _atom_site_symmetry_multiplicity
 _atom_site_fract_x
 _atom_site_fract_y
 _atom_site_fract_z
 _atom_site_fract_occupancy
 O  O1  1  0.76998  0.33688  0.71061  1
 O  O2  1  0.38207  0.95372  0.27382  1
 O  O3  1  0.14548  0.16280  0.91274  1
 O  O4  1  0.14548  0.33720  0.41274  1
 O  O5  1  0.23002  0.66312  0.28939  1
 O  O6  1  0.23002  0.83688  0.78939  1
 O  O7  1  0.61793  0.04628  0.72618  1
 O  O8  1  0.38207  0.54628  0.77382  1
 O  O9  1  0.85452  0.83720  0.08726  1
 O  O10  1  0.76998  0.16312  0.21061  1
 O  O11  1  0.85452  0.66280  0.58726  1
 O  O12  1  0.61793  0.45372  0.22618  1
 Pb  Pb1  1  0.50000  0.00000  -0.00000  1
 Pb  Pb2  1  0.50000  0.50000  0.50000  1
 Se  Se1  1  0.88655  0.15536  0.68149  1
 Se  Se2  1  0.11345  0.84464  0.31851  1
 Se  Se3  1  0.88655  0.34464  0.18149  1
 Se  Se4  1  0.11345  0.65536  0.81851  1
