CIF file written using JARVIS-Tools package.
data_Co
_symmetry_space_group_name_H-M  'P6_3/mmc'
_cell_length_a       2.48282
_cell_length_b       8.02399
_cell_length_c       2.48282
_cell_angle_alpha    90
_cell_angle_beta     119.97
_cell_angle_gamma    90.0001

_symmetry_Int_Tables_number  194
_chemical_formula_structural  Co
_chemical_formula_sum  Co4
_cell_volume  42.84912737231728
_cell_formula_units_Z  4
loop_
  _symmetry_equiv_pos_site_id
 _symmetry_equiv_pos_as_xyz
 1  'x, y, z'
loop_
 _atom_site_type_symbol
 _atom_site_label
 _atom_site_symmetry_multiplicity
 _atom_site_fract_x
 _atom_site_fract_y
 _atom_site_fract_z
 _atom_site_fract_occupancy
 Co  Co1  1  0.66669  0.62500  0.33327  1
 Co  Co2  1  0.33327  0.87499  0.66669  1
 Co  Co3  1  0.66669  0.12501  0.33327  1
 Co  Co4  1  0.33327  0.37500  0.66669  1
