CIF file written using JARVIS-Tools package.
data_RbCu3S2
_symmetry_space_group_name_H-M  'C2/m'
_cell_length_a       3.93173
_cell_length_b       7.62042
_cell_length_c       8.49765
_cell_angle_alpha    111.554
_cell_angle_beta     90
_cell_angle_gamma    104.95

_symmetry_Int_Tables_number  12
_chemical_formula_structural  RbCu3S2
_chemical_formula_sum  Rb2Cu6S4
_cell_volume  227.5070082355429
_cell_formula_units_Z  2
loop_
  _symmetry_equiv_pos_site_id
 _symmetry_equiv_pos_as_xyz
 1  'x, y, z'
loop_
 _atom_site_type_symbol
 _atom_site_label
 _atom_site_symmetry_multiplicity
 _atom_site_fract_x
 _atom_site_fract_y
 _atom_site_fract_z
 _atom_site_fract_occupancy
 Cu  Cu1  1  0.40567  0.81134  0.36099  1
 Cu  Cu2  1  0.30871  0.61743  0.58304  1
 Cu  Cu3  1  0.06731  0.13463  0.41336  1
 Cu  Cu4  1  0.93269  0.86537  0.58664  1
 Cu  Cu5  1  0.69129  0.38257  0.41696  1
 Cu  Cu6  1  0.59433  0.18866  0.63901  1
 Rb  Rb1  1  0.86551  0.73102  0.95912  1
 Rb  Rb2  1  0.13449  0.26898  0.04088  1
 S  S1  1  0.80925  0.61850  0.31141  1
 S  S2  1  0.19075  0.38150  0.68859  1
 S  S3  1  0.52536  0.05072  0.24791  1
 S  S4  1  0.47464  0.94928  0.75209  1
