CIF file written using JARVIS-Tools package.
data_Bi
_symmetry_space_group_name_H-M  'Pmma'
_cell_length_a       3.27767
_cell_length_b       3.2771
_cell_length_c       6.55485
_cell_angle_alpha    90
_cell_angle_beta     90.0272
_cell_angle_gamma    90

_symmetry_Int_Tables_number  51
_chemical_formula_structural  Bi
_chemical_formula_sum  Bi2
_cell_volume  70.40732173209335
_cell_formula_units_Z  2
loop_
  _symmetry_equiv_pos_site_id
 _symmetry_equiv_pos_as_xyz
 1  'x, y, z'
loop_
 _atom_site_type_symbol
 _atom_site_label
 _atom_site_symmetry_multiplicity
 _atom_site_fract_x
 _atom_site_fract_y
 _atom_site_fract_z
 _atom_site_fract_occupancy
 Bi  Bi1  1  0.00402  0.00000  0.24998  1
 Bi  Bi2  1  0.99598  0.00000  0.75002  1
