CIF file written using JARVIS-Tools package.
data_SnHC2O3
_symmetry_space_group_name_H-M  'C2/m'
_cell_length_a       7.4759
_cell_length_b       7.4759
_cell_length_c       8.27022
_cell_angle_alpha    64.4583
_cell_angle_beta     115.542
_cell_angle_gamma    116.069

_symmetry_Int_Tables_number  12
_chemical_formula_structural  SnHC2O3
_chemical_formula_sum  Sn4H4C8O2
_cell_volume  357.5725642070992
_cell_formula_units_Z  4
loop_
  _symmetry_equiv_pos_site_id
 _symmetry_equiv_pos_as_xyz
 1  'x, y, z'
loop_
 _atom_site_type_symbol
 _atom_site_label
 _atom_site_symmetry_multiplicity
 _atom_site_fract_x
 _atom_site_fract_y
 _atom_site_fract_z
 _atom_site_fract_occupancy
 C  C1  1  0.40861  0.77626  0.32095  1
 C  C2  1  0.59139  0.22374  0.67905  1
 C  C3  1  0.22374  0.59139  0.32095  1
 C  C4  1  0.77626  0.40861  0.67905  1
 C  C5  1  0.47804  0.70747  0.52732  1
 C  C6  1  0.29253  0.52196  0.52732  1
 C  C7  1  0.52196  0.29253  0.47268  1
 C  C8  1  0.70747  0.47804  0.47268  1
 H  H1  1  0.01322  0.77819  0.45569  1
 H  H2  1  0.77819  0.01322  0.54431  1
 H  H3  1  0.98678  0.22181  0.54431  1
 H  H4  1  0.22181  0.98678  0.45569  1
 O  O1  1  0.52730  0.07016  0.80860  1
 O  O2  1  0.78095  0.63517  0.34984  1
 O  O3  1  0.63517  0.78095  0.65016  1
 O  O4  1  0.36483  0.21905  0.34984  1
 O  O5  1  0.84604  0.15396  0.46550  1
 O  O6  1  0.21905  0.36483  0.65016  1
 O  O7  1  0.92984  0.47270  0.80860  1
 O  O8  1  0.38300  0.61700  0.95352  1
 O  O9  1  0.07016  0.52730  0.19140  1
 O  O10  1  0.61700  0.38300  0.04648  1
 O  O11  1  0.15396  0.84604  0.53450  1
 O  O12  1  0.47270  0.92984  0.19140  1
 Sn  Sn1  1  0.28747  0.28747  -0.00000  1
 Sn  Sn2  1  0.71253  0.71253  -0.00000  1
 Sn  Sn3  1  0.19339  0.80661  0.84188  1
 Sn  Sn4  1  0.80661  0.19339  0.15812  1
