CIF file written using JARVIS-Tools package.
data_SrO
_symmetry_space_group_name_H-M  'P6_3/mmc'
_cell_length_a       4.27968
_cell_length_b       4.27968
_cell_length_c       5.17044
_cell_angle_alpha    90
_cell_angle_beta     90
_cell_angle_gamma    120

_symmetry_Int_Tables_number  194
_chemical_formula_structural  SrO
_chemical_formula_sum  Sr2O2
_cell_volume  82.01241104349604
_cell_formula_units_Z  2
loop_
  _symmetry_equiv_pos_site_id
 _symmetry_equiv_pos_as_xyz
 1  'x, y, z'
loop_
 _atom_site_type_symbol
 _atom_site_label
 _atom_site_symmetry_multiplicity
 _atom_site_fract_x
 _atom_site_fract_y
 _atom_site_fract_z
 _atom_site_fract_occupancy
 O  O1  1  0.66667  0.33333  0.56254  1
 O  O2  1  0.33333  0.66667  0.06254  1
 Sr  Sr1  1  0.66667  0.33333  0.06246  1
 Sr  Sr2  1  0.33333  0.66667  0.56246  1
