CIF file written using JARVIS-Tools package.
data_LiScMo3O8
_symmetry_space_group_name_H-M  'P3m1'
_cell_length_a       5.75967
_cell_length_b       5.75967
_cell_length_c       4.96539
_cell_angle_alpha    90
_cell_angle_beta     90
_cell_angle_gamma    120

_symmetry_Int_Tables_number  156
_chemical_formula_structural  LiScMo3O8
_chemical_formula_sum  LiScMo3O8
_cell_volume  142.6523820165257
_cell_formula_units_Z  1
loop_
  _symmetry_equiv_pos_site_id
 _symmetry_equiv_pos_as_xyz
 1  'x, y, z'
loop_
 _atom_site_type_symbol
 _atom_site_label
 _atom_site_symmetry_multiplicity
 _atom_site_fract_x
 _atom_site_fract_y
 _atom_site_fract_z
 _atom_site_fract_occupancy
 Li  Li1  1  0.66667  0.33333  0.30330  1
 Mo  Mo1  1  0.29354  0.14677  0.74787  1
 Mo  Mo2  1  0.85323  0.70646  0.74787  1
 Mo  Mo3  1  0.85323  0.14677  0.74787  1
 O  O1  1  0.66667  0.33333  0.94299  1
 O  O2  1  0.16766  0.33532  0.98951  1
 O  O3  1  0.66468  0.83234  0.98951  1
 O  O4  1  0.16766  0.83234  0.98951  1
 O  O5  1  0.00000  0.00000  0.46298  1
 O  O6  1  0.50598  0.01196  0.51792  1
 O  O7  1  0.98804  0.49402  0.51792  1
 O  O8  1  0.50598  0.49402  0.51792  1
 Sc  Sc1  1  0.33333  0.66667  0.27282  1
