CIF file written using JARVIS-Tools package.
data_NaNbO3
_symmetry_space_group_name_H-M  'R3c'
_cell_length_a       5.64491
_cell_length_b       5.6449
_cell_length_c       5.64491
_cell_angle_alpha    58.8472
_cell_angle_beta     58.8472
_cell_angle_gamma    58.8472

_symmetry_Int_Tables_number  161
_chemical_formula_structural  NaNbO3
_chemical_formula_sum  Na2Nb2O6
_cell_volume  123.84333974289895
_cell_formula_units_Z  2
loop_
  _symmetry_equiv_pos_site_id
 _symmetry_equiv_pos_as_xyz
 1  'x, y, z'
loop_
 _atom_site_type_symbol
 _atom_site_label
 _atom_site_symmetry_multiplicity
 _atom_site_fract_x
 _atom_site_fract_y
 _atom_site_fract_z
 _atom_site_fract_occupancy
 Na  Na1  1  0.27409  0.27409  0.27409  1
 Na  Na2  1  0.77409  0.77409  0.77409  1
 Nb  Nb1  1  0.01284  0.01284  0.01284  1
 Nb  Nb2  1  0.51284  0.51284  0.51284  1
 O  O1  1  0.24303  0.82423  0.67431  1
 O  O2  1  0.82423  0.67431  0.24303  1
 O  O3  1  0.67431  0.24303  0.82423  1
 O  O4  1  0.17431  0.32423  0.74303  1
 O  O5  1  0.74303  0.17431  0.32423  1
 O  O6  1  0.32423  0.74303  0.17431  1
