CIF file written using JARVIS-Tools package.
data_LiMnC2O6
_symmetry_space_group_name_H-M  'Cc'
_cell_length_a       5.35984
_cell_length_b       6.5697
_cell_length_c       7.90722
_cell_angle_alpha    84.9276
_cell_angle_beta     77.4762
_cell_angle_gamma    65.9205

_symmetry_Int_Tables_number  9
_chemical_formula_structural  LiMnC2O6
_chemical_formula_sum  Li2Mn2C4O2
_cell_volume  248.15611697986017
_cell_formula_units_Z  2
loop_
  _symmetry_equiv_pos_site_id
 _symmetry_equiv_pos_as_xyz
 1  'x, y, z'
loop_
 _atom_site_type_symbol
 _atom_site_label
 _atom_site_symmetry_multiplicity
 _atom_site_fract_x
 _atom_site_fract_y
 _atom_site_fract_z
 _atom_site_fract_occupancy
 C  C1  1  0.35074  0.59494  0.79008  1
 C  C2  1  0.91833  0.10777  0.70086  1
 C  C3  1  0.69698  0.90250  0.29012  1
 C  C4  1  0.77789  0.38952  0.20086  1
 Li  Li1  1  0.51828  -0.05535  0.68344  1
 Li  Li2  1  0.21442  0.55282  0.18341  1
 Mn  Mn1  1  0.61328  0.51516  0.50021  1
 Mn  Mn2  1  0.87964  0.98229  0.00025  1
 O  O1  1  0.20526  0.63444  0.94141  1
 O  O2  1  0.56343  0.95959  0.16092  1
 O  O3  1  0.27425  0.53798  0.66084  1
 O  O4  1  0.59126  0.61310  0.74129  1
 O  O5  1  0.70444  0.07047  0.79961  1
 O  O6  1  0.52653  0.42698  0.29945  1
 O  O7  1  0.59101  0.86298  0.44144  1
 O  O8  1  0.95570  0.88422  0.24130  1
 O  O9  1  0.13038  0.04145  0.77617  1
 O  O10  1  0.92348  0.45586  0.27628  1
 O  O11  1  0.90529  0.19705  0.55543  1
 O  O12  1  0.85440  0.30010  0.05547  1
