CIF file written using JARVIS-Tools package.
data_BaCuO2
_symmetry_space_group_name_H-M  'Pbcm'
_cell_length_a       5.89625
_cell_length_b       11.9571
_cell_length_c       3.68399
_cell_angle_alpha    90
_cell_angle_beta     90.0015
_cell_angle_gamma    90

_symmetry_Int_Tables_number  57
_chemical_formula_structural  BaCuO2
_chemical_formula_sum  Ba4Cu4O8
_cell_volume  259.7287294293038
_cell_formula_units_Z  4
loop_
  _symmetry_equiv_pos_site_id
 _symmetry_equiv_pos_as_xyz
 1  'x, y, z'
loop_
 _atom_site_type_symbol
 _atom_site_label
 _atom_site_symmetry_multiplicity
 _atom_site_fract_x
 _atom_site_fract_y
 _atom_site_fract_z
 _atom_site_fract_occupancy
 Ba  Ba1  1  0.00005  0.88776  0.50124  1
 Ba  Ba2  1  0.49996  0.61274  0.49877  1
 Ba  Ba3  1  0.50004  0.11274  0.50123  1
 Ba  Ba4  1  -0.00005  0.38776  0.49876  1
 Cu  Cu1  1  0.00004  0.11795  0.00127  1
 Cu  Cu2  1  0.49995  0.38255  -0.00131  1
 Cu  Cu3  1  0.50005  0.88255  0.00131  1
 Cu  Cu4  1  -0.00004  0.61795  0.99873  1
 O  O1  1  -0.00003  0.66450  0.49869  1
 O  O2  1  0.00003  0.16450  0.50131  1
 O  O3  1  0.24995  0.50024  0.99866  1
 O  O4  1  0.25004  0.00026  0.00134  1
 O  O5  1  0.50003  0.83600  0.50134  1
 O  O6  1  0.49997  0.33600  0.49866  1
 O  O7  1  0.74996  0.50026  0.99866  1
 O  O8  1  0.75005  0.00024  0.00134  1
