CIF file written using JARVIS-Tools package.
data_Li2Ti2NiO6
_symmetry_space_group_name_H-M  'Cmce'
_cell_length_a       5.13105
_cell_length_b       5.13104
_cell_length_c       10.254
_cell_angle_alpha    90
_cell_angle_beta     90
_cell_angle_gamma    121.009

_symmetry_Int_Tables_number  64
_chemical_formula_structural  Li2Ti2NiO6
_chemical_formula_sum  Li4Ti4Ni2O2
_cell_volume  231.38166666713127
_cell_formula_units_Z  2
loop_
  _symmetry_equiv_pos_site_id
 _symmetry_equiv_pos_as_xyz
 1  'x, y, z'
loop_
 _atom_site_type_symbol
 _atom_site_label
 _atom_site_symmetry_multiplicity
 _atom_site_fract_x
 _atom_site_fract_y
 _atom_site_fract_z
 _atom_site_fract_occupancy
 Li  Li1  1  0.16551  0.66551  0.75000  1
 Li  Li2  1  0.33449  0.83449  0.25000  1
 Li  Li3  1  0.66551  0.16551  0.75000  1
 Li  Li4  1  0.83449  0.33449  0.25000  1
 Ni  Ni1  1  0.00000  0.00000  0.00000  1
 Ni  Ni2  1  0.50000  0.50000  0.50000  1
 O  O1  1  0.85757  0.49510  0.60894  1
 O  O2  1  0.99510  0.35757  0.89106  1
 O  O3  1  0.14243  0.50490  0.39106  1
 O  O4  1  0.49510  0.85757  0.60894  1
 O  O5  1  0.00490  0.64243  0.10894  1
 O  O6  1  0.34479  0.34479  0.10156  1
 O  O7  1  0.65521  0.65521  0.89844  1
 O  O8  1  0.50490  0.14243  0.39106  1
 O  O9  1  0.84479  0.84479  0.39844  1
 O  O10  1  0.15521  0.15521  0.60156  1
 O  O11  1  0.35757  0.99510  0.89106  1
 O  O12  1  0.64243  0.00490  0.10894  1
 Ti  Ti1  1  0.83982  0.16018  0.50000  1
 Ti  Ti2  1  0.66018  0.33982  0.00000  1
 Ti  Ti3  1  0.33982  0.66018  0.00000  1
 Ti  Ti4  1  0.16018  0.83982  0.50000  1
