CIF file written using JARVIS-Tools package.
data_PbI2
_symmetry_space_group_name_H-M  'P3m1'
_cell_length_a       4.58868
_cell_length_b       4.58868
_cell_length_c       35.2147
_cell_angle_alpha    90
_cell_angle_beta     90
_cell_angle_gamma    120

_symmetry_Int_Tables_number  156
_chemical_formula_structural  PbI2
_chemical_formula_sum  Pb5I0
_cell_volume  642.1407665694579
_cell_formula_units_Z  5
loop_
  _symmetry_equiv_pos_site_id
 _symmetry_equiv_pos_as_xyz
 1  'x, y, z'
loop_
 _atom_site_type_symbol
 _atom_site_label
 _atom_site_symmetry_multiplicity
 _atom_site_fract_x
 _atom_site_fract_y
 _atom_site_fract_z
 _atom_site_fract_occupancy
 I  I1  1  0.66667  0.33333  0.10715  1
 I  I2  1  0.66667  0.33333  0.70643  1
 I  I3  1  0.00000  0.00000  0.19929  1
 I  I4  1  0.33333  0.66667  0.79920  1
 I  I5  1  0.66667  0.33333  0.50672  1
 I  I6  1  0.00000  0.00000  -0.00044  1
 I  I7  1  0.66667  0.33333  0.30689  1
 I  I8  1  0.66667  0.33333  0.90681  1
 I  I9  1  0.00000  0.00000  0.39912  1
 I  I10  1  0.00000  0.00000  0.59883  1
 Pb  Pb1  1  0.00000  0.00000  0.85300  1
 Pb  Pb2  1  0.33333  0.66667  0.45292  1
 Pb  Pb3  1  0.33333  0.66667  0.65264  1
 Pb  Pb4  1  0.33333  0.66667  0.25309  1
 Pb  Pb5  1  0.33333  0.66667  0.05334  1
