CIF file written using JARVIS-Tools package.
data_LiVPO5
_symmetry_space_group_name_H-M  'C2/m'
_cell_length_a       5.84274
_cell_length_b       7.87644
_cell_length_c       4.97011
_cell_angle_alpha    80.4445
_cell_angle_beta     90
_cell_angle_gamma    68.2289

_symmetry_Int_Tables_number  12
_chemical_formula_structural  LiVPO5
_chemical_formula_sum  Li2V2P2O0
_cell_volume  208.98923530160855
_cell_formula_units_Z  2
loop_
  _symmetry_equiv_pos_site_id
 _symmetry_equiv_pos_as_xyz
 1  'x, y, z'
loop_
 _atom_site_type_symbol
 _atom_site_label
 _atom_site_symmetry_multiplicity
 _atom_site_fract_x
 _atom_site_fract_y
 _atom_site_fract_z
 _atom_site_fract_occupancy
 Li  Li1  1  0.13599  0.72801  0.05225  1
 Li  Li2  1  0.86401  0.27199  0.94775  1
 O  O1  1  0.37612  0.80569  0.82390  1
 O  O2  1  0.81819  0.80569  0.82390  1
 O  O3  1  0.05176  0.89647  0.31578  1
 O  O4  1  0.58180  0.83641  0.41529  1
 O  O5  1  0.74439  0.51122  0.75552  1
 O  O6  1  0.25561  0.48878  0.24448  1
 O  O7  1  0.41820  0.16359  0.58471  1
 O  O8  1  0.94824  0.10353  0.68422  1
 O  O9  1  0.18181  0.19431  0.17610  1
 O  O10  1  0.62388  0.19431  0.17610  1
 P  P1  1  0.64204  0.71592  0.71952  1
 P  P2  1  0.35796  0.28408  0.28048  1
 V  V1  1  0.22110  0.00000  0.50000  1
 V  V2  1  0.77890  -0.00000  0.50000  1
