CIF file written using JARVIS-Tools package.
data_CaC2
_symmetry_space_group_name_H-M  'C2/m'
_cell_length_a       3.81233
_cell_length_b       4.04653
_cell_length_c       7.4151
_cell_angle_alpha    104.924
_cell_angle_beta     90
_cell_angle_gamma    118.103

_symmetry_Int_Tables_number  12
_chemical_formula_structural  CaC2
_chemical_formula_sum  Ca2C4
_cell_volume  96.50797496864428
_cell_formula_units_Z  2
loop_
  _symmetry_equiv_pos_site_id
 _symmetry_equiv_pos_as_xyz
 1  'x, y, z'
loop_
 _atom_site_type_symbol
 _atom_site_label
 _atom_site_symmetry_multiplicity
 _atom_site_fract_x
 _atom_site_fract_y
 _atom_site_fract_z
 _atom_site_fract_occupancy
 C  C1  1  0.07945  0.15890  0.56461  1
 C  C2  1  0.92055  0.84110  0.43539  1
 C  C3  1  0.45228  0.90456  0.05889  1
 C  C4  1  0.54772  0.09544  0.94111  1
 Ca  Ca1  1  0.79728  0.59456  0.75333  1
 Ca  Ca2  1  0.20272  0.40544  0.24667  1
