CIF file written using JARVIS-Tools package.
data_VHO2
_symmetry_space_group_name_H-M  'Pnma'
_cell_length_a       2.99174
_cell_length_b       4.62139
_cell_length_c       10.0229
_cell_angle_alpha    90
_cell_angle_beta     90
_cell_angle_gamma    90

_symmetry_Int_Tables_number  62
_chemical_formula_structural  VHO2
_chemical_formula_sum  V4H4O8
_cell_volume  138.57716457726633
_cell_formula_units_Z  4
loop_
  _symmetry_equiv_pos_site_id
 _symmetry_equiv_pos_as_xyz
 1  'x, y, z'
loop_
 _atom_site_type_symbol
 _atom_site_label
 _atom_site_symmetry_multiplicity
 _atom_site_fract_x
 _atom_site_fract_y
 _atom_site_fract_z
 _atom_site_fract_occupancy
 H  H1  1  0.00000  0.65512  0.42044  1
 H  H2  1  0.00000  0.34488  0.92044  1
 H  H3  1  0.50000  0.84487  0.59791  1
 H  H4  1  0.50000  0.15513  0.09791  1
 O  O1  1  0.00000  0.95007  0.30755  1
 O  O2  1  0.00000  0.04993  0.80755  1
 O  O3  1  0.50000  0.54993  0.71080  1
 O  O4  1  0.50000  0.45007  0.21080  1
 O  O5  1  0.00000  0.45240  0.45508  1
 O  O6  1  0.00000  0.54760  0.95508  1
 O  O7  1  0.50000  0.04759  0.56327  1
 O  O8  1  0.50000  0.95241  0.06327  1
 V  V1  1  0.00000  0.30361  0.65257  1
 V  V2  1  0.00000  0.69639  0.15257  1
 V  V3  1  0.50000  0.19638  0.36578  1
 V  V4  1  0.50000  0.80362  0.86578  1
