CIF file written using JARVIS-Tools package.
data_LiYMo3O8
_symmetry_space_group_name_H-M  'P3m1'
_cell_length_a       5.81761
_cell_length_b       5.81761
_cell_length_c       5.18118
_cell_angle_alpha    90
_cell_angle_beta     90
_cell_angle_gamma    120

_symmetry_Int_Tables_number  156
_chemical_formula_structural  LiYMo3O8
_chemical_formula_sum  LiYMo3O8
_cell_volume  151.8620528961219
_cell_formula_units_Z  1
loop_
  _symmetry_equiv_pos_site_id
 _symmetry_equiv_pos_as_xyz
 1  'x, y, z'
loop_
 _atom_site_type_symbol
 _atom_site_label
 _atom_site_symmetry_multiplicity
 _atom_site_fract_x
 _atom_site_fract_y
 _atom_site_fract_z
 _atom_site_fract_occupancy
 Li  Li1  1  0.66667  0.33333  0.30408  1
 Mo  Mo1  1  0.85325  0.14675  0.74604  1
 Mo  Mo2  1  0.29349  0.14675  0.74604  1
 Mo  Mo3  1  0.85325  0.70651  0.74604  1
 O  O1  1  0.66667  0.33333  0.94456  1
 O  O2  1  0.67245  0.83622  0.97711  1
 O  O3  1  0.16378  0.83622  0.97711  1
 O  O4  1  0.16378  0.32755  0.97711  1
 O  O5  1  0.00000  0.00000  0.46934  1
 O  O6  1  0.97769  0.48884  0.52987  1
 O  O7  1  0.51116  0.48884  0.52987  1
 O  O8  1  0.51116  0.02231  0.52987  1
 Y  Y1  1  0.33333  0.66667  0.27096  1
