CIF file written using JARVIS-Tools package.
data_VHO2
_symmetry_space_group_name_H-M  'Pnma'
_cell_length_a       2.99153
_cell_length_b       4.62137
_cell_length_c       10.0237
_cell_angle_alpha    90
_cell_angle_beta     90
_cell_angle_gamma    90

_symmetry_Int_Tables_number  62
_chemical_formula_structural  VHO2
_chemical_formula_sum  V4H4O8
_cell_volume  138.57750622397916
_cell_formula_units_Z  4
loop_
  _symmetry_equiv_pos_site_id
 _symmetry_equiv_pos_as_xyz
 1  'x, y, z'
loop_
 _atom_site_type_symbol
 _atom_site_label
 _atom_site_symmetry_multiplicity
 _atom_site_fract_x
 _atom_site_fract_y
 _atom_site_fract_z
 _atom_site_fract_occupancy
 H  H1  1  0.25000  0.90505  0.41120  1
 H  H2  1  0.25000  0.59495  0.91120  1
 H  H3  1  0.75000  0.09495  0.58880  1
 H  H4  1  0.75000  0.40505  0.08880  1
 O  O1  1  0.25000  0.19995  0.29838  1
 O  O2  1  0.25000  0.30005  0.79838  1
 O  O3  1  0.75000  0.80005  0.70162  1
 O  O4  1  0.75000  0.69995  0.20162  1
 O  O5  1  0.25000  0.70236  0.44588  1
 O  O6  1  0.25000  0.79764  0.94588  1
 O  O7  1  0.75000  0.29764  0.55412  1
 O  O8  1  0.75000  0.20236  0.05412  1
 V  V1  1  0.25000  0.55369  0.64339  1
 V  V2  1  0.25000  0.94631  0.14339  1
 V  V3  1  0.75000  0.44631  0.35661  1
 V  V4  1  0.75000  0.05369  0.85661  1
