CIF file written using JARVIS-Tools package.
data_BiS
_symmetry_space_group_name_H-M  'C2/m'
_cell_length_a       3.98343
_cell_length_b       3.98343
_cell_length_c       7.54569
_cell_angle_alpha    74.787
_cell_angle_beta     74.787
_cell_angle_gamma    89.9984

_symmetry_Int_Tables_number  12
_chemical_formula_structural  BiS
_chemical_formula_sum  Bi2S2
_cell_volume  111.18310432389339
_cell_formula_units_Z  2
loop_
  _symmetry_equiv_pos_site_id
 _symmetry_equiv_pos_as_xyz
 1  'x, y, z'
loop_
 _atom_site_type_symbol
 _atom_site_label
 _atom_site_symmetry_multiplicity
 _atom_site_fract_x
 _atom_site_fract_y
 _atom_site_fract_z
 _atom_site_fract_occupancy
 Bi  Bi1  1  0.11430  0.11430  0.77180  1
 Bi  Bi2  1  0.88570  0.88570  0.22820  1
 S  S1  1  0.64441  0.64441  0.71412  1
 S  S2  1  0.35559  0.35559  0.28588  1
