CIF file written using JARVIS-Tools package.
data_Al2SiO5
_symmetry_space_group_name_H-M  'Cmcm'
_cell_length_a       3.55443
_cell_length_b       4.96967
_cell_length_c       9.18157
_cell_angle_alpha    90
_cell_angle_beta     90
_cell_angle_gamma    110.954

_symmetry_Int_Tables_number  63
_chemical_formula_structural  Al2SiO5
_chemical_formula_sum  Al4Si2O0
_cell_volume  151.4609857151919
_cell_formula_units_Z  2
loop_
  _symmetry_equiv_pos_site_id
 _symmetry_equiv_pos_as_xyz
 1  'x, y, z'
loop_
 _atom_site_type_symbol
 _atom_site_label
 _atom_site_symmetry_multiplicity
 _atom_site_fract_x
 _atom_site_fract_y
 _atom_site_fract_z
 _atom_site_fract_occupancy
 Al  Al1  1  0.13506  0.27012  0.43255  1
 Al  Al2  1  0.86494  0.72988  0.56745  1
 Al  Al3  1  0.13506  0.27012  0.06745  1
 Al  Al4  1  0.86494  0.72988  0.93255  1
 O  O1  1  0.31269  0.62538  0.58945  1
 O  O2  1  0.68731  0.37462  0.41055  1
 O  O3  1  0.68731  0.37462  0.08945  1
 O  O4  1  0.31269  0.62538  0.91055  1
 O  O5  1  0.05492  0.10983  0.61788  1
 O  O6  1  0.94508  0.89017  0.38212  1
 O  O7  1  0.73961  0.47923  0.75000  1
 O  O8  1  0.26039  0.52077  0.25000  1
 O  O9  1  0.05492  0.10983  0.88212  1
 O  O10  1  0.94508  0.89017  0.11788  1
 Si  Si1  1  0.18377  0.36755  0.75000  1
 Si  Si2  1  0.81623  0.63245  0.25000  1
