CIF file written using JARVIS-Tools package.
data_Li4V3Ni3W2O16
_symmetry_space_group_name_H-M  'Cm'
_cell_length_a       5.85024
_cell_length_b       5.84799
_cell_length_c       9.69808
_cell_angle_alpha    90.0001
_cell_angle_beta     90
_cell_angle_gamma    119.987

_symmetry_Int_Tables_number  8
_chemical_formula_structural  Li4V3Ni3W2O16
_chemical_formula_sum  Li4V3Ni3W2O6
_cell_volume  287.37696139876124
_cell_formula_units_Z  1
loop_
  _symmetry_equiv_pos_site_id
 _symmetry_equiv_pos_as_xyz
 1  'x, y, z'
loop_
 _atom_site_type_symbol
 _atom_site_label
 _atom_site_symmetry_multiplicity
 _atom_site_fract_x
 _atom_site_fract_y
 _atom_site_fract_z
 _atom_site_fract_occupancy
 Li  Li1  1  0.32380  0.66191  0.90160  1
 Li  Li2  1  0.00589  0.00296  0.98694  1
 Li  Li3  1  0.00315  0.00159  0.49002  1
 Li  Li4  1  0.66262  0.33132  0.40597  1
 Ni  Ni1  1  0.82396  0.65657  0.71219  1
 Ni  Ni2  1  0.82396  0.16742  0.71219  1
 Ni  Ni3  1  0.65987  0.82995  0.21281  1
 O  O1  1  0.17548  0.83228  0.58817  1
 O  O2  1  0.95313  0.47658  0.84839  1
 O  O3  1  0.31944  0.65973  0.10173  1
 O  O4  1  0.01245  0.00624  0.29949  1
 O  O5  1  0.01407  0.00705  0.79718  1
 O  O6  1  0.17548  0.34322  0.58817  1
 O  O7  1  0.03502  0.51752  0.34679  1
 O  O8  1  0.47254  0.51257  0.34651  1
 O  O9  1  0.66043  0.83023  0.58291  1
 O  O10  1  0.84064  0.66199  0.08747  1
 O  O11  1  0.50130  0.03189  0.85392  1
 O  O12  1  0.63616  0.31809  0.60723  1
 O  O13  1  0.47254  0.96000  0.34651  1
 O  O14  1  0.35040  0.17521  0.09836  1
 O  O15  1  0.50131  0.46944  0.85392  1
 O  O16  1  0.84063  0.17866  0.08747  1
 V  V1  1  0.35258  0.17630  0.72715  1
 V  V2  1  0.18296  0.35382  0.21891  1
 V  V3  1  0.18296  0.82916  0.21891  1
 W  W1  1  0.68071  0.34036  0.99088  1
 W  W2  1  0.33652  0.66827  0.49606  1
