CIF file written using JARVIS-Tools package.
data_Na7Al3O8
_symmetry_space_group_name_H-M  'P-1'
_cell_length_a       5.89239
_cell_length_b       7.9837
_cell_length_c       11.3456
_cell_angle_alpha    69.3425
_cell_angle_beta     89.5165
_cell_angle_gamma    71.0352

_symmetry_Int_Tables_number  2
_chemical_formula_structural  Na7Al3O8
_chemical_formula_sum  Na4Al6O6
_cell_volume  468.89344698300596
_cell_formula_units_Z  2
loop_
  _symmetry_equiv_pos_site_id
 _symmetry_equiv_pos_as_xyz
 1  'x, y, z'
loop_
 _atom_site_type_symbol
 _atom_site_label
 _atom_site_symmetry_multiplicity
 _atom_site_fract_x
 _atom_site_fract_y
 _atom_site_fract_z
 _atom_site_fract_occupancy
 Al  Al1  1  0.83377  0.90221  0.84257  1
 Al  Al2  1  0.04266  0.67460  0.64465  1
 Al  Al3  1  0.16623  0.09779  0.15743  1
 Al  Al4  1  0.95734  0.32540  0.35535  1
 Al  Al5  1  0.93427  0.29962  0.86236  1
 Al  Al6  1  0.06573  0.70038  0.13764  1
 Na  Na1  1  0.65968  0.09743  0.04950  1
 Na  Na2  1  0.44999  0.30697  0.76112  1
 Na  Na3  1  0.47580  0.28992  0.27156  1
 Na  Na4  1  0.25975  0.50825  0.94488  1
 Na  Na5  1  0.14951  0.10131  0.66808  1
 Na  Na6  1  0.74025  0.49175  0.05512  1
 Na  Na7  1  0.85049  0.89869  0.33192  1
 Na  Na8  1  0.72386  0.51914  0.54999  1
 Na  Na9  1  0.52420  0.71008  0.72844  1
 Na  Na10  1  0.62544  0.08815  0.55630  1
 Na  Na11  1  0.37456  0.91185  0.44370  1
 Na  Na12  1  0.55001  0.69303  0.23888  1
 Na  Na13  1  0.27614  0.48086  0.45001  1
 Na  Na14  1  0.34032  0.90257  0.95050  1
 O  O1  1  0.83975  0.76579  0.00794  1
 O  O2  1  0.35799  0.59301  0.10575  1
 O  O3  1  0.97518  0.56220  0.27741  1
 O  O4  1  0.05113  0.77772  0.76301  1
 O  O5  1  0.32307  0.63362  0.58158  1
 O  O6  1  0.93338  0.09200  0.83767  1
 O  O7  1  0.77888  0.80181  0.53534  1
 O  O8  1  0.22112  0.19819  0.46466  1
 O  O9  1  0.02482  0.43780  0.72259  1
 O  O10  1  0.06662  0.90800  0.16233  1
 O  O11  1  0.53480  0.98907  0.76946  1
 O  O12  1  0.16025  0.23421  0.99206  1
 O  O13  1  0.46520  0.01093  0.23054  1
 O  O14  1  0.94887  0.22228  0.23699  1
 O  O15  1  0.64201  0.40699  0.89425  1
 O  O16  1  0.67693  0.36638  0.41842  1
