CIF file written using JARVIS-Tools package.
data_Mg3Zr
_symmetry_space_group_name_H-M  'Pmm2'
_cell_length_a       6.5774
_cell_length_b       3.0123
_cell_length_c       5.104
_cell_angle_alpha    90
_cell_angle_beta     90
_cell_angle_gamma    117.257

_symmetry_Int_Tables_number  25
_chemical_formula_structural  Mg3Zr
_chemical_formula_sum  Mg3Zr
_cell_volume  89.89753127656768
_cell_formula_units_Z  1
loop_
  _symmetry_equiv_pos_site_id
 _symmetry_equiv_pos_as_xyz
 1  'x, y, z'
loop_
 _atom_site_type_symbol
 _atom_site_label
 _atom_site_symmetry_multiplicity
 _atom_site_fract_x
 _atom_site_fract_y
 _atom_site_fract_z
 _atom_site_fract_occupancy
 Mg  Mg1  1  0.65216  0.65216  0.25000  1
 Mg  Mg2  1  0.33974  0.33974  0.75000  1
 Mg  Mg3  1  0.85325  0.35325  0.75000  1
 Zr  Zr1  1  0.15485  0.65485  0.25000  1
