CIF file written using JARVIS-Tools package.
data_Li3Ni2C4O12
_symmetry_space_group_name_H-M  'P1'
_cell_length_a       5.13708
_cell_length_b       5.95794
_cell_length_c       7.8041
_cell_angle_alpha    89.9978
_cell_angle_beta     90.3811
_cell_angle_gamma    113.741

_symmetry_Int_Tables_number  1
_chemical_formula_structural  Li3Ni2C4O12
_chemical_formula_sum  Li3Ni2C4O2
_cell_volume  218.63619850169343
_cell_formula_units_Z  1
loop_
  _symmetry_equiv_pos_site_id
 _symmetry_equiv_pos_as_xyz
 1  'x, y, z'
loop_
 _atom_site_type_symbol
 _atom_site_label
 _atom_site_symmetry_multiplicity
 _atom_site_fract_x
 _atom_site_fract_y
 _atom_site_fract_z
 _atom_site_fract_occupancy
 C  C1  1  0.75953  0.89199  0.73895  1
 C  C2  1  0.24082  0.38662  0.76324  1
 C  C3  1  0.74711  0.60440  0.23122  1
 C  C4  1  0.25578  0.11002  0.26590  1
 Li  Li1  1  0.29147  0.68541  0.06065  1
 Li  Li2  1  0.70848  0.32130  0.92743  1
 Li  Li3  1  0.80049  0.18884  0.44665  1
 Ni  Ni1  1  0.99433  0.99909  0.00466  1
 Ni  Ni2  1  0.49725  0.50810  0.49869  1
 O  O1  1  0.63725  0.93403  0.87707  1
 O  O2  1  0.39353  0.15662  0.40489  1
 O  O3  1  0.49936  0.61163  0.24614  1
 O  O4  1  0.00968  0.89785  0.77218  1
 O  O5  1  0.64835  0.86226  0.59104  1
 O  O6  1  0.00027  0.10388  0.24699  1
 O  O7  1  0.11715  0.40541  0.62338  1
 O  O8  1  0.11817  0.36118  0.91159  1
 O  O9  1  0.87342  0.63515  0.08393  1
 O  O10  1  0.49975  0.40428  0.75033  1
 O  O11  1  0.85904  0.56058  0.36792  1
 O  O12  1  0.35779  0.06160  0.12236  1
