CIF file written using JARVIS-Tools package.
data_KFeF4
_symmetry_space_group_name_H-M  'Cmcm'
_cell_length_a       3.98747
_cell_length_b       6.30585
_cell_length_c       7.73299
_cell_angle_alpha    90
_cell_angle_beta     90
_cell_angle_gamma    108.432

_symmetry_Int_Tables_number  63
_chemical_formula_structural  KFeF4
_chemical_formula_sum  K2Fe2F8
_cell_volume  184.4669079018847
_cell_formula_units_Z  2
loop_
  _symmetry_equiv_pos_site_id
 _symmetry_equiv_pos_as_xyz
 1  'x, y, z'
loop_
 _atom_site_type_symbol
 _atom_site_label
 _atom_site_symmetry_multiplicity
 _atom_site_fract_x
 _atom_site_fract_y
 _atom_site_fract_z
 _atom_site_fract_occupancy
 F  F1  1  0.15425  0.30851  0.55331  1
 F  F2  1  0.84575  0.69149  0.44669  1
 F  F3  1  0.84575  0.69149  0.05331  1
 F  F4  1  0.15425  0.30851  0.94669  1
 F  F5  1  0.50000  0.00000  0.00000  1
 F  F6  1  0.50000  0.00000  0.50000  1
 F  F7  1  0.95817  0.91634  0.75000  1
 F  F8  1  0.04183  0.08366  0.25000  1
 Fe  Fe1  1  0.00000  0.00000  0.00000  1
 Fe  Fe2  1  0.00000  0.00000  0.50000  1
 K  K1  1  0.72771  0.45541  0.75000  1
 K  K2  1  0.27229  0.54459  0.25000  1
