CIF file written using JARVIS-Tools package.
data_MnF3
_symmetry_space_group_name_H-M  'P-31m'
_cell_length_a       5.03495
_cell_length_b       5.03495
_cell_length_c       4.51831
_cell_angle_alpha    90.031
_cell_angle_beta     89.969
_cell_angle_gamma    59.9883

_symmetry_Int_Tables_number  162
_chemical_formula_structural  MnF3
_chemical_formula_sum  Mn2F6
_cell_volume  99.18480903462714
_cell_formula_units_Z  2
loop_
  _symmetry_equiv_pos_site_id
 _symmetry_equiv_pos_as_xyz
 1  'x, y, z'
loop_
 _atom_site_type_symbol
 _atom_site_label
 _atom_site_symmetry_multiplicity
 _atom_site_fract_x
 _atom_site_fract_y
 _atom_site_fract_z
 _atom_site_fract_occupancy
 F  F1  1  0.63686  0.99979  0.27731  1
 F  F2  1  0.00021  0.36314  0.27731  1
 F  F3  1  0.36357  0.63643  0.27746  1
 F  F4  1  0.63641  0.36359  0.72253  1
 F  F5  1  0.99976  0.63688  0.72269  1
 F  F6  1  0.36312  0.00024  0.72269  1
 Mn  Mn1  1  0.66668  0.66670  0.50000  1
 Mn  Mn2  1  0.33330  0.33332  0.50000  1
