CIF file written using JARVIS-Tools package.
data_VHO2
_symmetry_space_group_name_H-M  'Pnma'
_cell_length_a       2.99125
_cell_length_b       4.62154
_cell_length_c       10.0234
_cell_angle_alpha    90
_cell_angle_beta     90
_cell_angle_gamma    90

_symmetry_Int_Tables_number  62
_chemical_formula_structural  VHO2
_chemical_formula_sum  V4H4O8
_cell_volume  138.56447545229332
_cell_formula_units_Z  4
loop_
  _symmetry_equiv_pos_site_id
 _symmetry_equiv_pos_as_xyz
 1  'x, y, z'
loop_
 _atom_site_type_symbol
 _atom_site_label
 _atom_site_symmetry_multiplicity
 _atom_site_fract_x
 _atom_site_fract_y
 _atom_site_fract_z
 _atom_site_fract_occupancy
 H  H1  1  0.25000  0.90502  0.41116  1
 H  H2  1  0.25000  0.59498  0.91116  1
 H  H3  1  0.75000  0.09498  0.58884  1
 H  H4  1  0.75000  0.40502  0.08884  1
 O  O1  1  0.25000  0.19983  0.29840  1
 O  O2  1  0.25000  0.30017  0.79840  1
 O  O3  1  0.75000  0.80017  0.70160  1
 O  O4  1  0.75000  0.69983  0.20160  1
 O  O5  1  0.25000  0.70234  0.44587  1
 O  O6  1  0.25000  0.79766  0.94587  1
 O  O7  1  0.75000  0.29766  0.55413  1
 O  O8  1  0.75000  0.20234  0.05413  1
 V  V1  1  0.25000  0.55377  0.64337  1
 V  V2  1  0.25000  0.94623  0.14337  1
 V  V3  1  0.75000  0.44623  0.35663  1
 V  V4  1  0.75000  0.05377  0.85663  1
