CIF file written using JARVIS-Tools package.
data_S
_symmetry_space_group_name_H-M  'P4_2/mnm'
_cell_length_a       3.01296
_cell_length_b       5.55478
_cell_length_c       5.55478
_cell_angle_alpha    90
_cell_angle_beta     90
_cell_angle_gamma    90

_symmetry_Int_Tables_number  136
_chemical_formula_structural  S
_chemical_formula_sum  S4
_cell_volume  92.96671455881194
_cell_formula_units_Z  4
loop_
  _symmetry_equiv_pos_site_id
 _symmetry_equiv_pos_as_xyz
 1  'x, y, z'
loop_
 _atom_site_type_symbol
 _atom_site_label
 _atom_site_symmetry_multiplicity
 _atom_site_fract_x
 _atom_site_fract_y
 _atom_site_fract_z
 _atom_site_fract_occupancy
 S  S1  1  0.75000  0.37941  0.87935  1
 S  S2  1  0.75000  0.62059  0.12065  1
 S  S3  1  0.25000  0.87935  0.62059  1
 S  S4  1  0.25000  0.12065  0.37941  1
