CIF file written using JARVIS-Tools package.
data_CuAgTe2
_symmetry_space_group_name_H-M  'Pmm2'
_cell_length_a       3.18186
_cell_length_b       4.2305
_cell_length_c       7.35758
_cell_angle_alpha    90
_cell_angle_beta     90
_cell_angle_gamma    90

_symmetry_Int_Tables_number  25
_chemical_formula_structural  CuAgTe2
_chemical_formula_sum  CuAgTe2
_cell_volume  99.0395279775722
_cell_formula_units_Z  1
loop_
  _symmetry_equiv_pos_site_id
 _symmetry_equiv_pos_as_xyz
 1  'x, y, z'
loop_
 _atom_site_type_symbol
 _atom_site_label
 _atom_site_symmetry_multiplicity
 _atom_site_fract_x
 _atom_site_fract_y
 _atom_site_fract_z
 _atom_site_fract_occupancy
 Ag  Ag1  1  0.00000  0.50000  0.44350  1
 Cu  Cu1  1  0.50000  0.00000  0.56767  1
 Te  Te1  1  0.00000  0.00000  0.20378  1
 Te  Te2  1  0.50000  0.50000  0.78505  1
