CIF file written using JARVIS-Tools package.
data_P2Pb3O8
_symmetry_space_group_name_H-M  'R-3m'
_cell_length_a       5.52149
_cell_length_b       7.47079
_cell_length_c       9.54851
_cell_angle_alpha    102.289
_cell_angle_beta     90
_cell_angle_gamma    111.687

_symmetry_Int_Tables_number  166
_chemical_formula_structural  P2Pb3O8
_chemical_formula_sum  P4Pb6O6
_cell_volume  356.2648514037349
_cell_formula_units_Z  2
loop_
  _symmetry_equiv_pos_site_id
 _symmetry_equiv_pos_as_xyz
 1  'x, y, z'
loop_
 _atom_site_type_symbol
 _atom_site_label
 _atom_site_symmetry_multiplicity
 _atom_site_fract_x
 _atom_site_fract_y
 _atom_site_fract_z
 _atom_site_fract_occupancy
 O  O1  1  0.25802  0.01604  0.08568  1
 O  O2  1  0.87442  0.70926  0.11202  1
 O  O3  1  0.62558  0.29074  0.38798  1
 O  O4  1  0.75802  0.01604  0.58568  1
 O  O5  1  0.66515  0.29074  0.88798  1
 O  O6  1  0.37442  0.70926  0.61202  1
 O  O7  1  0.33485  0.70926  0.11202  1
 O  O8  1  0.12558  0.29074  0.88798  1
 O  O9  1  0.39561  0.29122  0.61881  1
 O  O10  1  0.16515  0.29074  0.38798  1
 O  O11  1  0.60439  0.70878  0.38119  1
 O  O12  1  0.83485  0.70926  0.61202  1
 O  O13  1  0.24198  0.98396  0.41432  1
 O  O14  1  0.89561  0.29122  0.11881  1
 O  O15  1  0.74198  0.98396  0.91432  1
 O  O16  1  0.10439  0.70878  0.88119  1
 P  P1  1  0.14368  0.78735  0.04795  1
 P  P2  1  0.85632  0.21265  0.95205  1
 P  P3  1  0.64368  0.78735  0.54795  1
 P  P4  1  0.35632  0.21265  0.45205  1
 Pb  Pb1  1  0.56607  0.63215  0.85502  1
 Pb  Pb2  1  0.93393  0.36785  0.64498  1
 Pb  Pb3  1  0.06607  0.63215  0.35502  1
 Pb  Pb4  1  0.75000  -0.00000  0.25000  1
 Pb  Pb5  1  0.43393  0.36785  0.14498  1
 Pb  Pb6  1  0.25000  -0.00000  0.75000  1
