CIF file written using JARVIS-Tools package.
data_Ca2AlBiO5
_symmetry_space_group_name_H-M  'Cc'
_cell_length_a       5.63835
_cell_length_b       5.98255
_cell_length_c       8.70471
_cell_angle_alpha    110.099
_cell_angle_beta     107.24
_cell_angle_gamma    89.9999

_symmetry_Int_Tables_number  9
_chemical_formula_structural  Ca2AlBiO5
_chemical_formula_sum  Ca4Al2Bi2O0
_cell_volume  261.6525190330879
_cell_formula_units_Z  2
loop_
  _symmetry_equiv_pos_site_id
 _symmetry_equiv_pos_as_xyz
 1  'x, y, z'
loop_
 _atom_site_type_symbol
 _atom_site_label
 _atom_site_symmetry_multiplicity
 _atom_site_fract_x
 _atom_site_fract_y
 _atom_site_fract_z
 _atom_site_fract_occupancy
 Al  Al1  1  0.72541  0.82162  0.51580  1
 Al  Al2  1  0.22542  0.19342  0.51579  1
 Bi  Bi1  1  0.47777  0.49023  0.99499  1
 Bi  Bi2  1  0.97776  0.00403  0.99500  1
 Ca  Ca1  1  0.83271  0.39052  0.75783  1
 Ca  Ca2  1  0.58761  0.16977  0.28935  1
 Ca  Ca3  1  0.08761  0.61885  0.28936  1
 Ca  Ca4  1  0.33269  0.86657  0.75783  1
 O  O1  1  0.14345  0.20365  0.86944  1
 O  O2  1  0.91832  0.05462  0.49244  1
 O  O3  1  0.36841  0.45345  0.70221  1
 O  O4  1  0.41832  0.93706  0.49245  1
 O  O5  1  0.64345  0.16503  0.86943  1
 O  O6  1  0.21362  0.27599  0.33634  1
 O  O7  1  0.88588  0.64194  0.03451  1
 O  O8  1  0.71362  0.55961  0.33634  1
 O  O9  1  0.86842  0.74803  0.70222  1
 O  O10  1  0.38588  0.89182  0.03451  1
