CIF file written using JARVIS-Tools package.
data_YIO
_symmetry_space_group_name_H-M  'R-3m'
_cell_length_a       10.9269
_cell_length_b       10.9269
_cell_length_c       10.9269
_cell_angle_alpha    20.6499
_cell_angle_beta     20.6499
_cell_angle_gamma    20.6499

_symmetry_Int_Tables_number  166
_chemical_formula_structural  YIO
_chemical_formula_sum  Y2I2O2
_cell_volume  142.0366728158737
_cell_formula_units_Z  2
loop_
  _symmetry_equiv_pos_site_id
 _symmetry_equiv_pos_as_xyz
 1  'x, y, z'
loop_
 _atom_site_type_symbol
 _atom_site_label
 _atom_site_symmetry_multiplicity
 _atom_site_fract_x
 _atom_site_fract_y
 _atom_site_fract_z
 _atom_site_fract_occupancy
 I  I1  1  0.11159  0.11159  0.11159  1
 I  I2  1  0.88841  0.88841  0.88841  1
 O  O1  1  0.36015  0.36015  0.36015  1
 O  O2  1  0.63985  0.63985  0.63985  1
 Y  Y1  1  0.28953  0.28953  0.28953  1
 Y  Y2  1  0.71047  0.71047  0.71047  1
