CIF file written using JARVIS-Tools package.
data_SiH18C2N8O2F6
_symmetry_space_group_name_H-M  'P-1'
_cell_length_a       6.44517
_cell_length_b       6.57301
_cell_length_c       7.80513
_cell_angle_alpha    73.5514
_cell_angle_beta     83.9754
_cell_angle_gamma    91.437

_symmetry_Int_Tables_number  2
_chemical_formula_structural  SiH18C2N8O2F6
_chemical_formula_sum  SiH8C2N8O2F6
_cell_volume  314.8523432748905
_cell_formula_units_Z  1
loop_
  _symmetry_equiv_pos_site_id
 _symmetry_equiv_pos_as_xyz
 1  'x, y, z'
loop_
 _atom_site_type_symbol
 _atom_site_label
 _atom_site_symmetry_multiplicity
 _atom_site_fract_x
 _atom_site_fract_y
 _atom_site_fract_z
 _atom_site_fract_occupancy
 C  C1  1  0.52501  0.76229  0.47708  1
 C  C2  1  0.47499  0.23771  0.52292  1
 F  F1  1  0.95364  -0.00037  0.78724  1
 F  F2  1  0.23490  0.88587  0.97080  1
 F  F3  1  0.12542  0.24699  0.91290  1
 F  F4  1  0.04636  0.00037  0.21276  1
 F  F5  1  0.87458  0.75301  0.08710  1
 F  F6  1  0.76510  0.11413  0.02920  1
 H  H1  1  0.11490  0.52428  0.67712  1
 H  H2  1  0.22696  0.38024  0.05674  1
 H  H3  1  0.11240  0.76907  0.69971  1
 H  H4  1  0.26201  0.60904  0.08189  1
 H  H5  1  0.16082  0.16789  0.61462  1
 H  H6  1  0.54888  0.92119  0.20834  1
 H  H7  1  0.29273  0.86285  0.32058  1
 H  H8  1  0.45944  0.61601  0.74584  1
 H  H9  1  0.88510  0.47572  0.32288  1
 H  H10  1  0.45112  0.07881  0.79166  1
 H  H11  1  0.54056  0.38399  0.25416  1
 H  H12  1  0.70727  0.13715  0.67942  1
 H  H13  1  0.77562  0.68656  0.61455  1
 H  H14  1  0.77304  0.61976  0.94326  1
 H  H15  1  0.88760  0.23093  0.30029  1
 H  H16  1  0.73799  0.39096  0.91811  1
 H  H17  1  0.83918  0.83211  0.38538  1
 H  H18  1  0.22438  0.31344  0.38545  1
 N  N1  1  0.45000  0.84696  0.32116  1
 N  N2  1  0.39379  0.67795  0.62852  1
 N  N3  1  0.26992  0.24348  0.50982  1
 N  N4  1  0.55000  0.15304  0.67884  1
 N  N5  1  0.60621  0.32205  0.37148  1
 N  N6  1  0.73008  0.75652  0.49018  1
 N  N7  1  0.82303  0.32281  0.37638  1
 N  N8  1  0.17697  0.67719  0.62362  1
 O  O1  1  0.27756  0.45666  0.13762  1
 O  O2  1  0.72244  0.54334  0.86238  1
 Si  Si1  1  0.00000  0.00000  0.00000  1
