CIF file written using JARVIS-Tools package.
data_MgC2O4
_symmetry_space_group_name_H-M  'P2_1/c'
_cell_length_a       5.76167
_cell_length_b       4.9944
_cell_length_c       5.42676
_cell_angle_alpha    90
_cell_angle_beta     114.697
_cell_angle_gamma    90

_symmetry_Int_Tables_number  14
_chemical_formula_structural  MgC2O4
_chemical_formula_sum  Mg2C4O8
_cell_volume  141.87626622364814
_cell_formula_units_Z  2
loop_
  _symmetry_equiv_pos_site_id
 _symmetry_equiv_pos_as_xyz
 1  'x, y, z'
loop_
 _atom_site_type_symbol
 _atom_site_label
 _atom_site_symmetry_multiplicity
 _atom_site_fract_x
 _atom_site_fract_y
 _atom_site_fract_z
 _atom_site_fract_occupancy
 C  C1  1  0.08852  0.87666  0.54487  1
 C  C2  1  0.41148  0.37666  0.95513  1
 C  C3  1  0.58852  0.62334  0.04487  1
 C  C4  1  0.91148  0.12334  0.45513  1
 Mg  Mg1  1  0.00000  0.00000  0.00000  1
 Mg  Mg2  1  0.50000  0.50000  0.50000  1
 O  O1  1  0.12816  0.77825  0.77245  1
 O  O2  1  0.17990  0.79064  0.38185  1
 O  O3  1  0.37184  0.27825  0.72755  1
 O  O4  1  0.32010  0.29064  0.11815  1
 O  O5  1  0.67990  0.70936  0.88185  1
 O  O6  1  0.62816  0.72175  0.27245  1
 O  O7  1  0.82010  0.20936  0.61815  1
 O  O8  1  0.87184  0.22175  0.22755  1
