CIF file written using JARVIS-Tools package.
data_PbI2
_symmetry_space_group_name_H-M  'P3m1'
_cell_length_a       4.58917
_cell_length_b       4.58917
_cell_length_c       49.2864
_cell_angle_alpha    90
_cell_angle_beta     90
_cell_angle_gamma    120

_symmetry_Int_Tables_number  156
_chemical_formula_structural  PbI2
_chemical_formula_sum  Pb7I4
_cell_volume  898.932000444205
_cell_formula_units_Z  7
loop_
  _symmetry_equiv_pos_site_id
 _symmetry_equiv_pos_as_xyz
 1  'x, y, z'
loop_
 _atom_site_type_symbol
 _atom_site_label
 _atom_site_symmetry_multiplicity
 _atom_site_fract_x
 _atom_site_fract_y
 _atom_site_fract_z
 _atom_site_fract_occupancy
 I  I1  1  0.66667  0.33333  0.64745  1
 I  I2  1  0.66667  0.33333  0.93347  1
 I  I3  1  0.00000  0.00000  0.42792  1
 I  I4  1  0.66667  0.33333  0.07664  1
 I  I5  1  0.66667  0.33333  0.50478  1
 I  I6  1  0.00000  0.00000  0.14249  1
 I  I7  1  0.66667  0.33333  0.79022  1
 I  I8  1  0.33333  0.66667  0.85659  1
 I  I9  1  0.00000  0.00000  0.99977  1
 I  I10  1  0.66667  0.33333  0.36214  1
 I  I11  1  0.00000  0.00000  0.71333  1
 I  I12  1  0.00000  0.00000  0.28527  1
 I  I13  1  0.66667  0.33333  0.21936  1
 I  I14  1  0.00000  0.00000  0.57059  1
 Pb  Pb1  1  0.33333  0.66667  0.03819  1
 Pb  Pb2  1  0.33333  0.66667  0.32371  1
 Pb  Pb3  1  0.33333  0.66667  0.60902  1
 Pb  Pb4  1  0.33333  0.66667  0.75178  1
 Pb  Pb5  1  0.00000  0.00000  0.89502  1
 Pb  Pb6  1  0.33333  0.66667  0.46635  1
 Pb  Pb7  1  0.33333  0.66667  0.18092  1
