CIF file written using JARVIS-Tools package.
data_Mn6OF11
_symmetry_space_group_name_H-M  'Amm2'
_cell_length_a       6.93937
_cell_length_b       3.26908
_cell_length_c       10.7819
_cell_angle_alpha    90
_cell_angle_beta     108.777
_cell_angle_gamma    90

_symmetry_Int_Tables_number  38
_chemical_formula_structural  Mn6OF11
_chemical_formula_sum  Mn6OF
_cell_volume  231.57301714923565
_cell_formula_units_Z  1
loop_
  _symmetry_equiv_pos_site_id
 _symmetry_equiv_pos_as_xyz
 1  'x, y, z'
loop_
 _atom_site_type_symbol
 _atom_site_label
 _atom_site_symmetry_multiplicity
 _atom_site_fract_x
 _atom_site_fract_y
 _atom_site_fract_z
 _atom_site_fract_occupancy
 F  F1  1  0.27218  0.50000  0.54436  1
 F  F2  1  0.93204  0.50000  0.86385  1
 F  F3  1  0.63592  0.00000  0.66609  1
 F  F4  1  0.03009  0.00000  0.66601  1
 F  F5  1  0.69520  0.00000  0.99787  1
 F  F6  1  0.30282  0.00000  0.99789  1
 F  F7  1  0.72650  0.50000  0.45323  1
 F  F8  1  0.40588  0.50000  0.81174  1
 F  F9  1  0.06491  0.50000  0.12979  1
 F  F10  1  0.97456  0.00000  0.33907  1
 F  F11  1  0.36437  0.00000  0.33903  1
 Mn  Mn1  1  0.16853  0.50000  0.33719  1
 Mn  Mn2  1  0.33811  0.00000  0.67626  1
 Mn  Mn3  1  0.65480  0.00000  0.30971  1
 Mn  Mn4  1  0.50729  0.50000  0.01444  1
 Mn  Mn5  1  0.82796  0.50000  0.65598  1
 Mn  Mn6  1  0.99834  0.00000  0.99652  1
 O  O1  1  0.60050  0.50000  0.20098  1
