CIF file written using JARVIS-Tools package.
data_SrH4O6
_symmetry_space_group_name_H-M  'C2/c'
_cell_length_a       5.08732
_cell_length_b       5.08732
_cell_length_c       8.2837
_cell_angle_alpha    99.6243
_cell_angle_beta     80.3757
_cell_angle_gamma    108.49

_symmetry_Int_Tables_number  15
_chemical_formula_structural  SrH4O6
_chemical_formula_sum  Sr2H8O2
_cell_volume  198.9601559679985
_cell_formula_units_Z  2
loop_
  _symmetry_equiv_pos_site_id
 _symmetry_equiv_pos_as_xyz
 1  'x, y, z'
loop_
 _atom_site_type_symbol
 _atom_site_label
 _atom_site_symmetry_multiplicity
 _atom_site_fract_x
 _atom_site_fract_y
 _atom_site_fract_z
 _atom_site_fract_occupancy
 H  H1  1  0.27062  0.67036  0.96461  1
 H  H2  1  0.67138  0.26966  0.56961  1
 H  H3  1  0.73034  0.32862  0.06961  1
 H  H4  1  0.32964  0.72938  0.46461  1
 H  H5  1  0.20390  0.38970  0.65319  1
 H  H6  1  0.61030  0.79610  0.15319  1
 H  H7  1  0.39070  0.20289  0.88102  1
 H  H8  1  0.79711  0.60930  0.38102  1
 O  O1  1  0.44593  0.48351  0.93682  1
 O  O2  1  0.51649  0.55407  0.43682  1
 O  O3  1  0.83501  0.17863  0.56123  1
 O  O4  1  0.82137  0.16499  0.06123  1
 O  O5  1  0.16600  0.82037  0.47301  1
 O  O6  1  0.17963  0.83400  0.97301  1
 O  O7  1  0.55503  0.51543  0.09736  1
 O  O8  1  0.65033  0.01828  0.20291  1
 O  O9  1  0.01932  0.64933  0.33131  1
 O  O10  1  0.48457  0.44497  0.59736  1
 O  O11  1  0.35067  0.98068  0.83131  1
 O  O12  1  0.98172  0.34967  0.70291  1
 Sr  Sr1  1  0.17121  0.17021  0.26712  1
 Sr  Sr2  1  0.82979  0.82879  0.76712  1
