CIF file written using JARVIS-Tools package.
data_Li2VF6
_symmetry_space_group_name_H-M  'I4/mmm'
_cell_length_a       6.35614
_cell_length_b       6.35614
_cell_length_c       5.95385
_cell_angle_alpha    90
_cell_angle_beta     90
_cell_angle_gamma    90

_symmetry_Int_Tables_number  139
_chemical_formula_structural  Li2VF6
_chemical_formula_sum  Li4V2F2
_cell_volume  240.5387266096908
_cell_formula_units_Z  2
loop_
  _symmetry_equiv_pos_site_id
 _symmetry_equiv_pos_as_xyz
 1  'x, y, z'
loop_
 _atom_site_type_symbol
 _atom_site_label
 _atom_site_symmetry_multiplicity
 _atom_site_fract_x
 _atom_site_fract_y
 _atom_site_fract_z
 _atom_site_fract_occupancy
 F  F1  1  0.50029  0.69785  0.75000  1
 F  F2  1  0.99971  0.19785  0.25000  1
 F  F3  1  0.80215  0.00029  0.75000  1
 F  F4  1  0.00029  0.80215  0.25000  1
 F  F5  1  0.50000  0.00000  0.45295  1
 F  F6  1  0.50000  0.00000  0.04705  1
 F  F7  1  0.49971  0.30215  0.75000  1
 F  F8  1  0.69785  0.50029  0.25000  1
 F  F9  1  0.19785  0.99971  0.75000  1
 F  F10  1  0.00000  0.50000  0.54705  1
 F  F11  1  0.00000  0.50000  0.95295  1
 F  F12  1  0.30215  0.49971  0.25000  1
 Li  Li1  1  0.50000  0.50000  0.50000  1
 Li  Li2  1  0.50000  0.50000  0.00000  1
 Li  Li3  1  0.00000  0.00000  0.50000  1
 Li  Li4  1  0.00000  0.00000  0.00000  1
 V  V1  1  0.00000  0.50000  0.24999  1
 V  V2  1  0.50000  0.00000  0.75001  1
