CIF file written using JARVIS-Tools package.
data_LiV4OF11
_symmetry_space_group_name_H-M  'P1'
_cell_length_a       5.03416
_cell_length_b       5.40069
_cell_length_c       7.42835
_cell_angle_alpha    95.7081
_cell_angle_beta     90.5138
_cell_angle_gamma    90.4491

_symmetry_Int_Tables_number  1
_chemical_formula_structural  LiV4OF11
_chemical_formula_sum  LiV4OF
_cell_volume  200.9446109797835
_cell_formula_units_Z  1
loop_
  _symmetry_equiv_pos_site_id
 _symmetry_equiv_pos_as_xyz
 1  'x, y, z'
loop_
 _atom_site_type_symbol
 _atom_site_label
 _atom_site_symmetry_multiplicity
 _atom_site_fract_x
 _atom_site_fract_y
 _atom_site_fract_z
 _atom_site_fract_occupancy
 F  F1  1  0.37052  0.50831  0.74778  1
 F  F2  1  0.87647  0.99348  0.25042  1
 F  F3  1  0.82021  0.31840  0.56680  1
 F  F4  1  0.17861  0.67704  0.42352  1
 F  F5  1  0.68584  0.18330  0.92625  1
 F  F6  1  0.81549  0.68438  0.95819  1
 F  F7  1  0.64566  0.49287  0.24876  1
 F  F8  1  0.68588  0.81576  0.55884  1
 F  F9  1  0.12935  0.98315  0.75084  1
 F  F10  1  0.29670  0.79965  0.07710  1
 F  F11  1  0.31592  0.18529  0.43803  1
 Li  Li1  1  0.00160  0.59012  0.19281  1
 O  O1  1  0.19721  0.30299  0.05074  1
 V  V1  1  0.00778  0.02304  0.00106  1
 V  V2  1  0.48192  0.48582  0.99752  1
 V  V3  1  0.50408  0.49883  0.50290  1
 V  V4  1  0.00172  0.00418  0.50581  1
