CIF file written using JARVIS-Tools package.
data_Hg3AsS4Cl
_symmetry_space_group_name_H-M  'P6_3mc'
_cell_length_a       7.57936
_cell_length_b       7.57936
_cell_length_c       9.0127
_cell_angle_alpha    90
_cell_angle_beta     90
_cell_angle_gamma    120

_symmetry_Int_Tables_number  186
_chemical_formula_structural  Hg3AsS4Cl
_chemical_formula_sum  Hg6As2S8Cl2
_cell_volume  448.3848276634209
_cell_formula_units_Z  2
loop_
  _symmetry_equiv_pos_site_id
 _symmetry_equiv_pos_as_xyz
 1  'x, y, z'
loop_
 _atom_site_type_symbol
 _atom_site_label
 _atom_site_symmetry_multiplicity
 _atom_site_fract_x
 _atom_site_fract_y
 _atom_site_fract_z
 _atom_site_fract_occupancy
 As  As1  1  0.00000  0.00000  0.22406  1
 As  As2  1  0.00000  0.00000  0.72406  1
 Cl  Cl1  1  0.66667  0.33333  0.02856  1
 Cl  Cl2  1  0.33333  0.66667  0.52856  1
 Hg  Hg1  1  0.50382  0.00765  0.74604  1
 Hg  Hg2  1  0.50382  0.49618  0.74604  1
 Hg  Hg3  1  0.00765  0.50382  0.24604  1
 Hg  Hg4  1  0.49618  0.99235  0.24604  1
 Hg  Hg5  1  0.49618  0.50382  0.24604  1
 Hg  Hg6  1  0.99235  0.49618  0.74604  1
 S  S1  1  0.29590  0.14795  0.36430  1
 S  S2  1  0.33333  0.66667  0.10365  1
 S  S3  1  0.14795  0.29590  0.86430  1
 S  S4  1  0.66667  0.33333  0.60365  1
 S  S5  1  0.70410  0.85205  0.86430  1
 S  S6  1  0.85205  0.70410  0.36430  1
 S  S7  1  0.85205  0.14795  0.36430  1
 S  S8  1  0.14795  0.85205  0.86430  1
