CIF file written using JARVIS-Tools package.
data_NaI
_symmetry_space_group_name_H-M  'I4_1/amd'
_cell_length_a       4.40511
_cell_length_b       4.40511
_cell_length_c       8.16745
_cell_angle_alpha    105.645
_cell_angle_beta     105.645
_cell_angle_gamma    90

_symmetry_Int_Tables_number  141
_chemical_formula_structural  NaI
_chemical_formula_sum  Na2I2
_cell_volume  146.51045609537238
_cell_formula_units_Z  2
loop_
  _symmetry_equiv_pos_site_id
 _symmetry_equiv_pos_as_xyz
 1  'x, y, z'
loop_
 _atom_site_type_symbol
 _atom_site_label
 _atom_site_symmetry_multiplicity
 _atom_site_fract_x
 _atom_site_fract_y
 _atom_site_fract_z
 _atom_site_fract_occupancy
 I  I1  1  0.62500  0.87500  0.25000  1
 I  I2  1  0.37500  0.12500  0.75000  1
 Na  Na1  1  0.12500  0.37500  0.25000  1
 Na  Na2  1  0.87500  0.62500  0.75000  1
