CIF file written using JARVIS-Tools package.
data_CaAl4O7
_symmetry_space_group_name_H-M  'C2/c'
_cell_length_a       5.49201
_cell_length_b       7.85201
_cell_length_c       7.85201
_cell_angle_alpha    69.4881
_cell_angle_beta     76.9148
_cell_angle_gamma    76.9148

_symmetry_Int_Tables_number  15
_chemical_formula_structural  CaAl4O7
_chemical_formula_sum  Ca2Al8O4
_cell_volume  304.86219786765224
_cell_formula_units_Z  2
loop_
  _symmetry_equiv_pos_site_id
 _symmetry_equiv_pos_as_xyz
 1  'x, y, z'
loop_
 _atom_site_type_symbol
 _atom_site_label
 _atom_site_symmetry_multiplicity
 _atom_site_fract_x
 _atom_site_fract_y
 _atom_site_fract_z
 _atom_site_fract_occupancy
 Al  Al1  1  0.69332  0.24798  0.07642  1
 Al  Al2  1  0.80668  0.92358  0.75202  1
 Al  Al3  1  0.30668  0.75202  0.92358  1
 Al  Al4  1  0.19332  0.07642  0.24798  1
 Al  Al5  1  0.75558  0.56079  0.68124  1
 Al  Al6  1  0.74442  0.31875  0.43921  1
 Al  Al7  1  0.24442  0.43921  0.31875  1
 Al  Al8  1  0.25558  0.68124  0.56079  1
 Ca  Ca1  1  0.75000  0.80150  0.19850  1
 Ca  Ca2  1  0.25000  0.19850  0.80150  1
 O  O1  1  0.57965  0.36321  0.25013  1
 O  O2  1  0.07965  0.25013  0.36321  1
 O  O3  1  0.42035  0.63679  0.74987  1
 O  O4  1  0.35161  0.86412  0.37198  1
 O  O5  1  0.14839  0.62802  0.13588  1
 O  O6  1  0.64839  0.13588  0.62802  1
 O  O7  1  0.42368  0.17171  0.05899  1
 O  O8  1  0.92368  0.05899  0.17171  1
 O  O9  1  0.57632  0.82829  0.94101  1
 O  O10  1  0.92035  0.74987  0.63679  1
 O  O11  1  0.75000  0.53144  0.46856  1
 O  O12  1  0.07632  0.94101  0.82829  1
 O  O13  1  0.85161  0.37198  0.86412  1
 O  O14  1  0.25000  0.46856  0.53144  1
