CIF file written using JARVIS-Tools package.
data_ZnCoF6
_symmetry_space_group_name_H-M  'R-3'
_cell_length_a       5.22486
_cell_length_b       5.22486
_cell_length_c       5.22486
_cell_angle_alpha    54.8652
_cell_angle_beta     54.8652
_cell_angle_gamma    54.8652

_symmetry_Int_Tables_number  148
_chemical_formula_structural  ZnCoF6
_chemical_formula_sum  ZnCoF6
_cell_volume  88.8014485103089
_cell_formula_units_Z  1
loop_
  _symmetry_equiv_pos_site_id
 _symmetry_equiv_pos_as_xyz
 1  'x, y, z'
loop_
 _atom_site_type_symbol
 _atom_site_label
 _atom_site_symmetry_multiplicity
 _atom_site_fract_x
 _atom_site_fract_y
 _atom_site_fract_z
 _atom_site_fract_occupancy
 Co  Co1  1  0.00000  0.00000  0.00000  1
 F  F1  1  0.61502  0.91926  0.22909  1
 F  F2  1  0.91926  0.22909  0.61502  1
 F  F3  1  0.77091  0.38498  0.08074  1
 F  F4  1  0.08074  0.77091  0.38498  1
 F  F5  1  0.38498  0.08074  0.77091  1
 F  F6  1  0.22909  0.61502  0.91926  1
 Zn  Zn1  1  0.50000  0.50000  0.50000  1
