CIF file written using JARVIS-Tools package.
data_PNF2
_symmetry_space_group_name_H-M  'Cmc2_1'
_cell_length_a       5.00502
_cell_length_b       4.93576
_cell_length_c       4.93576
_cell_angle_alpha    116.864
_cell_angle_beta     90
_cell_angle_gamma    90

_symmetry_Int_Tables_number  36
_chemical_formula_structural  PNF2
_chemical_formula_sum  P2N2F4
_cell_volume  108.77240934703502
_cell_formula_units_Z  2
loop_
  _symmetry_equiv_pos_site_id
 _symmetry_equiv_pos_as_xyz
 1  'x, y, z'
loop_
 _atom_site_type_symbol
 _atom_site_label
 _atom_site_symmetry_multiplicity
 _atom_site_fract_x
 _atom_site_fract_y
 _atom_site_fract_z
 _atom_site_fract_occupancy
 F  F1  1  0.06802  0.47309  0.19128  1
 F  F2  1  0.56802  0.52691  0.80872  1
 F  F3  1  0.06802  0.19128  0.47309  1
 F  F4  1  0.56802  0.80872  0.52691  1
 N  N1  1  0.19828  0.90853  0.90853  1
 N  N2  1  0.69828  0.09147  0.09147  1
 P  P1  1  0.50469  0.85610  0.85610  1
 P  P2  1  0.00469  0.14390  0.14390  1
