CIF file written using JARVIS-Tools package.
data_Li2VP2O8
_symmetry_space_group_name_H-M  'P-3'
_cell_length_a       4.86617
_cell_length_b       4.86622
_cell_length_c       7.05415
_cell_angle_alpha    89.9924
_cell_angle_beta     90.0131
_cell_angle_gamma    120

_symmetry_Int_Tables_number  147
_chemical_formula_structural  Li2VP2O8
_chemical_formula_sum  Li2VP2O8
_cell_volume  144.66194318674636
_cell_formula_units_Z  1
loop_
  _symmetry_equiv_pos_site_id
 _symmetry_equiv_pos_as_xyz
 1  'x, y, z'
loop_
 _atom_site_type_symbol
 _atom_site_label
 _atom_site_symmetry_multiplicity
 _atom_site_fract_x
 _atom_site_fract_y
 _atom_site_fract_z
 _atom_site_fract_occupancy
 Li  Li1  1  0.33319  0.66672  0.70516  1
 Li  Li2  1  0.66676  0.33328  0.29484  1
 O  O1  1  0.04843  0.69788  0.15825  1
 O  O2  1  0.33332  0.66664  0.44855  1
 O  O3  1  0.30213  0.35046  0.15832  1
 O  O4  1  0.64956  0.95158  0.15834  1
 O  O5  1  0.35040  0.04842  0.84166  1
 O  O6  1  0.69782  0.64954  0.84167  1
 O  O7  1  0.66664  0.33337  0.55145  1
 O  O8  1  0.95153  0.30213  0.84174  1
 P  P1  1  0.33337  0.66664  0.23844  1
 P  P2  1  0.66658  0.33336  0.76156  1
 V  V1  1  -0.00002  0.00000  0.00000  1
