CIF file written using JARVIS-Tools package.
data_CoH2SeO5
_symmetry_space_group_name_H-M  'C2/c'
_cell_length_a       5.35149
_cell_length_b       5.35149
_cell_length_c       7.58216
_cell_angle_alpha    107.262
_cell_angle_beta     107.262
_cell_angle_gamma    97.6479

_symmetry_Int_Tables_number  15
_chemical_formula_structural  CoH2SeO5
_chemical_formula_sum  Co2H4Se2O0
_cell_volume  192.11049891186104
_cell_formula_units_Z  2
loop_
  _symmetry_equiv_pos_site_id
 _symmetry_equiv_pos_as_xyz
 1  'x, y, z'
loop_
 _atom_site_type_symbol
 _atom_site_label
 _atom_site_symmetry_multiplicity
 _atom_site_fract_x
 _atom_site_fract_y
 _atom_site_fract_z
 _atom_site_fract_occupancy
 Co  Co1  1  0.00000  0.00000  0.50000  1
 Co  Co2  1  0.50000  0.50000  0.00000  1
 H  H1  1  0.62612  0.03457  0.19947  1
 H  H2  1  0.46543  0.87388  0.30053  1
 H  H3  1  0.37388  0.96543  0.80053  1
 H  H4  1  0.53457  0.12612  0.69947  1
 O  O1  1  0.80820  0.71058  0.57060  1
 O  O2  1  0.78942  0.69180  0.92940  1
 O  O3  1  0.61886  0.88114  0.25000  1
 O  O4  1  0.38114  0.11886  0.75000  1
 O  O5  1  0.18581  0.75688  0.35043  1
 O  O6  1  0.19180  0.28942  0.42940  1
 O  O7  1  0.81419  0.24312  0.64957  1
 O  O8  1  0.21058  0.30820  0.07060  1
 O  O9  1  0.74312  0.31419  0.14957  1
 O  O10  1  0.25688  0.68581  0.85043  1
 Se  Se1  1  0.08526  0.41474  0.25000  1
 Se  Se2  1  0.91474  0.58526  0.75000  1
