CIF file written using JARVIS-Tools package.
data_ZnCu2SnSe4
_symmetry_space_group_name_H-M  'I-42m'
_cell_length_a       7.04735
_cell_length_b       7.04735
_cell_length_c       7.04735
_cell_angle_alpha    131.805
_cell_angle_beta     131.805
_cell_angle_gamma    70.5371

_symmetry_Int_Tables_number  121
_chemical_formula_structural  ZnCu2SnSe4
_chemical_formula_sum  ZnCu2SnSe4
_cell_volume  190.54956377795972
_cell_formula_units_Z  1
loop_
  _symmetry_equiv_pos_site_id
 _symmetry_equiv_pos_as_xyz
 1  'x, y, z'
loop_
 _atom_site_type_symbol
 _atom_site_label
 _atom_site_symmetry_multiplicity
 _atom_site_fract_x
 _atom_site_fract_y
 _atom_site_fract_z
 _atom_site_fract_occupancy
 Cu  Cu1  1  0.75000  0.25000  0.50000  1
 Cu  Cu2  1  0.25000  0.75000  0.50000  1
 Se  Se1  1  0.62483  0.62483  0.52040  1
 Se  Se2  1  0.89557  0.37517  -0.00000  1
 Se  Se3  1  0.37517  0.89557  -0.00000  1
 Se  Se4  1  0.10443  0.10443  0.47960  1
 Sn  Sn1  1  0.50000  0.50000  -0.00000  1
 Zn  Zn1  1  0.00000  0.00000  0.00000  1
