CIF file written using JARVIS-Tools package.
data_Cu3Te2Br2O6
_symmetry_space_group_name_H-M  'C2/m'
_cell_length_a       5.69155
_cell_length_b       5.69156
_cell_length_c       8.15256
_cell_angle_alpha    76.0653
_cell_angle_beta     76.0654
_cell_angle_gamma    67.1679

_symmetry_Int_Tables_number  12
_chemical_formula_structural  Cu3Te2Br2O6
_chemical_formula_sum  Cu3Te2Br2O6
_cell_volume  233.00808252198078
_cell_formula_units_Z  1
loop_
  _symmetry_equiv_pos_site_id
 _symmetry_equiv_pos_as_xyz
 1  'x, y, z'
loop_
 _atom_site_type_symbol
 _atom_site_label
 _atom_site_symmetry_multiplicity
 _atom_site_fract_x
 _atom_site_fract_y
 _atom_site_fract_z
 _atom_site_fract_occupancy
 Br  Br1  1  0.20552  0.20552  0.86668  1
 Br  Br2  1  0.79448  0.79448  0.13332  1
 Cu  Cu1  1  0.08979  0.08979  0.63468  1
 Cu  Cu2  1  0.50000  0.50000  0.50000  1
 Cu  Cu3  1  0.91021  0.91021  0.36532  1
 O  O1  1  0.86157  0.86157  0.62889  1
 O  O2  1  0.22226  0.61184  0.36771  1
 O  O3  1  0.77774  0.38816  0.63229  1
 O  O4  1  0.61184  0.22226  0.36771  1
 O  O5  1  0.38816  0.77774  0.63229  1
 O  O6  1  0.13843  0.13843  0.37111  1
 Te  Te1  1  0.33338  0.33338  0.23363  1
 Te  Te2  1  0.66662  0.66662  0.76637  1
