CIF file written using JARVIS-Tools package.
data_LiMg3
_symmetry_space_group_name_H-M  'Pmm2'
_cell_length_a       6.33697
_cell_length_b       3.16798
_cell_length_c       5.02648
_cell_angle_alpha    90
_cell_angle_beta     90
_cell_angle_gamma    119.995

_symmetry_Int_Tables_number  25
_chemical_formula_structural  LiMg3
_chemical_formula_sum  LiMg3
_cell_volume  87.39394103217737
_cell_formula_units_Z  1
loop_
  _symmetry_equiv_pos_site_id
 _symmetry_equiv_pos_as_xyz
 1  'x, y, z'
loop_
 _atom_site_type_symbol
 _atom_site_label
 _atom_site_symmetry_multiplicity
 _atom_site_fract_x
 _atom_site_fract_y
 _atom_site_fract_z
 _atom_site_fract_occupancy
 Li  Li1  1  0.16659  0.66659  0.25000  1
 Mg  Mg1  1  0.66529  0.66529  0.25000  1
 Mg  Mg2  1  0.32882  0.32882  0.75000  1
 Mg  Mg3  1  0.83930  0.33930  0.75000  1
