CIF file written using JARVIS-Tools package.
data_K3NaP2O6F2
_symmetry_space_group_name_H-M  'P-3m1'
_cell_length_a       5.74645
_cell_length_b       5.74645
_cell_length_c       7.36955
_cell_angle_alpha    90
_cell_angle_beta     90
_cell_angle_gamma    120

_symmetry_Int_Tables_number  164
_chemical_formula_structural  K3NaP2O6F2
_chemical_formula_sum  K3NaP2O6F2
_cell_volume  210.7514181522896
_cell_formula_units_Z  1
loop_
  _symmetry_equiv_pos_site_id
 _symmetry_equiv_pos_as_xyz
 1  'x, y, z'
loop_
 _atom_site_type_symbol
 _atom_site_label
 _atom_site_symmetry_multiplicity
 _atom_site_fract_x
 _atom_site_fract_y
 _atom_site_fract_z
 _atom_site_fract_occupancy
 F  F1  1  0.66667  0.33333  0.48022  1
 F  F2  1  0.33333  0.66667  0.51978  1
 K  K1  1  0.33333  0.66667  0.16852  1
 K  K2  1  0.00000  0.00000  0.50000  1
 K  K3  1  0.66667  0.33333  0.83148  1
 Na  Na1  1  0.00000  0.00000  0.00000  1
 O  O1  1  0.37030  0.18515  0.20656  1
 O  O2  1  0.81485  0.18515  0.20656  1
 O  O3  1  0.18515  0.81485  0.79344  1
 O  O4  1  0.62970  0.81485  0.79344  1
 O  O5  1  0.18515  0.37030  0.79344  1
 O  O6  1  0.81485  0.62970  0.20656  1
 P  P1  1  0.66667  0.33333  0.25540  1
 P  P2  1  0.33333  0.66667  0.74460  1
