CIF file written using JARVIS-Tools package.
data_SnCl4
_symmetry_space_group_name_H-M  'P2_1/c'
_cell_length_a       9.66252
_cell_length_b       6.53885
_cell_length_c       9.76043
_cell_angle_alpha    90
_cell_angle_beta     102.052
_cell_angle_gamma    90

_symmetry_Int_Tables_number  14
_chemical_formula_structural  SnCl4
_chemical_formula_sum  Sn4Cl6
_cell_volume  603.0878908001816
_cell_formula_units_Z  4
loop_
  _symmetry_equiv_pos_site_id
 _symmetry_equiv_pos_as_xyz
 1  'x, y, z'
loop_
 _atom_site_type_symbol
 _atom_site_label
 _atom_site_symmetry_multiplicity
 _atom_site_fract_x
 _atom_site_fract_y
 _atom_site_fract_z
 _atom_site_fract_occupancy
 Cl  Cl1  1  0.31337  0.08499  0.43453  1
 Cl  Cl2  1  0.18711  0.91210  0.06103  1
 Cl  Cl3  1  0.81289  0.41210  0.43897  1
 Cl  Cl4  1  0.81289  0.08790  0.93897  1
 Cl  Cl5  1  0.18711  0.58790  0.56103  1
 Cl  Cl6  1  0.05635  0.42223  0.18297  1
 Cl  Cl7  1  0.56376  0.41276  0.69118  1
 Cl  Cl8  1  0.94365  0.92223  0.31703  1
 Cl  Cl9  1  0.05635  0.07777  0.68297  1
 Cl  Cl10  1  0.43624  0.91276  0.80882  1
 Cl  Cl11  1  0.68663  0.58499  0.06547  1
 Cl  Cl12  1  0.68663  0.91501  0.56547  1
 Cl  Cl13  1  0.31337  0.41501  0.93453  1
 Cl  Cl14  1  0.43624  0.58724  0.30882  1
 Cl  Cl15  1  0.56376  0.08724  0.19118  1
 Cl  Cl16  1  0.94365  0.57777  0.81703  1
 Sn  Sn1  1  0.24723  0.41900  0.37267  1
 Sn  Sn2  1  0.75277  0.91900  0.12733  1
 Sn  Sn3  1  0.75277  0.58100  0.62733  1
 Sn  Sn4  1  0.24723  0.08100  0.87267  1
