CIF file written using JARVIS-Tools package.
data_ZnIn2S4
_symmetry_space_group_name_H-M  'R3m'
_cell_length_a       12.5789
_cell_length_b       12.5789
_cell_length_c       12.5789
_cell_angle_alpha    17.9073
_cell_angle_beta     17.9073
_cell_angle_gamma    17.9073

_symmetry_Int_Tables_number  160
_chemical_formula_structural  ZnIn2S4
_chemical_formula_sum  ZnIn2S4
_cell_volume  164.28907899004332
_cell_formula_units_Z  1
loop_
  _symmetry_equiv_pos_site_id
 _symmetry_equiv_pos_as_xyz
 1  'x, y, z'
loop_
 _atom_site_type_symbol
 _atom_site_label
 _atom_site_symmetry_multiplicity
 _atom_site_fract_x
 _atom_site_fract_y
 _atom_site_fract_z
 _atom_site_fract_occupancy
 In  In1  1  0.16223  0.16223  0.16223  1
 In  In2  1  0.93699  0.93699  0.93699  1
 S  S1  1  0.04360  0.04360  0.04360  1
 S  S2  1  0.29937  0.29937  0.29937  1
 S  S3  1  0.46147  0.46147  0.46147  1
 S  S4  1  0.87054  0.87054  0.87054  1
 Zn  Zn1  1  0.39120  0.39120  0.39120  1
