CIF file written using JARVIS-Tools package.
data_Mn2VO4
_symmetry_space_group_name_H-M  'R3m'
_cell_length_a       6.07514
_cell_length_b       6.07514
_cell_length_c       5.9068
_cell_angle_alpha    59.0527
_cell_angle_beta     90
_cell_angle_gamma    120

_symmetry_Int_Tables_number  160
_chemical_formula_structural  Mn2VO4
_chemical_formula_sum  Mn4V2O8
_cell_volume  151.90802335864524
_cell_formula_units_Z  2
loop_
  _symmetry_equiv_pos_site_id
 _symmetry_equiv_pos_as_xyz
 1  'x, y, z'
loop_
 _atom_site_type_symbol
 _atom_site_label
 _atom_site_symmetry_multiplicity
 _atom_site_fract_x
 _atom_site_fract_y
 _atom_site_fract_z
 _atom_site_fract_occupancy
 Mn  Mn1  1  0.62147  0.24294  0.63062  1
 Mn  Mn2  1  0.24204  0.48408  0.27388  1
 Mn  Mn3  1  0.62147  0.74791  0.63062  1
 Mn  Mn4  1  0.12644  0.74791  0.63062  1
 O  O1  1  0.84144  0.23264  0.37616  1
 O  O2  1  0.39120  0.23264  0.37616  1
 O  O3  1  0.87217  0.74433  0.38350  1
 O  O4  1  0.87680  0.25458  0.86862  1
 O  O5  1  0.87680  0.75360  0.86862  1
 O  O6  1  0.37778  0.25458  0.86862  1
 O  O7  1  0.39120  0.78240  0.37616  1
 O  O8  1  0.38059  0.76118  0.85822  1
 V  V1  1  0.63098  0.26196  0.10706  1
 V  V2  1  -0.00037  -0.00075  0.00112  1
