CIF file written using JARVIS-Tools package.
data_CoH2O2
_symmetry_space_group_name_H-M  'P-3m1'
_cell_length_a       3.14415
_cell_length_b       4.57071
_cell_length_c       5.44807
_cell_angle_alpha    89.9729
_cell_angle_beta     90
_cell_angle_gamma    90

_symmetry_Int_Tables_number  164
_chemical_formula_structural  CoH2O2
_chemical_formula_sum  Co2H4O4
_cell_volume  78.294143653448
_cell_formula_units_Z  2
loop_
  _symmetry_equiv_pos_site_id
 _symmetry_equiv_pos_as_xyz
 1  'x, y, z'
loop_
 _atom_site_type_symbol
 _atom_site_label
 _atom_site_symmetry_multiplicity
 _atom_site_fract_x
 _atom_site_fract_y
 _atom_site_fract_z
 _atom_site_fract_occupancy
 Co  Co1  1  0.43723  -0.00000  0.50000  1
 Co  Co2  1  0.93721  -0.00000  0.00000  1
 H  H1  1  0.93721  0.55545  0.33350  1
 H  H2  1  0.43721  0.55545  0.83350  1
 H  H3  1  0.43721  0.44456  0.16650  1
 H  H4  1  0.93721  0.44455  0.66650  1
 O  O1  1  0.93721  0.76911  0.33340  1
 O  O2  1  0.43720  0.76911  0.83341  1
 O  O3  1  0.43720  0.23090  0.16659  1
 O  O4  1  0.93721  0.23089  0.66660  1
