CIF file written using JARVIS-Tools package.
data_CuH2SeO5
_symmetry_space_group_name_H-M  'P-1'
_cell_length_a       5.12996
_cell_length_b       5.60237
_cell_length_c       7.49756
_cell_angle_alpha    103.532
_cell_angle_beta     106.525
_cell_angle_gamma    98.4429

_symmetry_Int_Tables_number  2
_chemical_formula_structural  CuH2SeO5
_chemical_formula_sum  Cu2H4Se2O0
_cell_volume  195.51089102387033
_cell_formula_units_Z  2
loop_
  _symmetry_equiv_pos_site_id
 _symmetry_equiv_pos_as_xyz
 1  'x, y, z'
loop_
 _atom_site_type_symbol
 _atom_site_label
 _atom_site_symmetry_multiplicity
 _atom_site_fract_x
 _atom_site_fract_y
 _atom_site_fract_z
 _atom_site_fract_occupancy
 Cu  Cu1  1  0.00000  0.00000  0.00000  1
 Cu  Cu2  1  0.50000  0.50000  0.50000  1
 H  H1  1  0.91219  0.47894  0.76886  1
 H  H2  1  0.08781  0.52106  0.23114  1
 H  H3  1  0.03248  0.67531  0.66534  1
 H  H4  1  0.96752  0.32469  0.33466  1
 O  O1  1  0.12584  0.38156  0.28858  1
 O  O2  1  0.33226  0.18418  0.97010  1
 O  O3  1  0.21361  0.80233  0.15289  1
 O  O4  1  0.66774  0.81582  0.02990  1
 O  O5  1  0.70253  0.15905  0.37886  1
 O  O6  1  0.32935  0.34601  0.65988  1
 O  O7  1  0.67065  0.65399  0.34012  1
 O  O8  1  0.78639  0.19767  0.84711  1
 O  O9  1  0.29747  0.84095  0.62114  1
 O  O10  1  0.87416  0.61844  0.71142  1
 Se  Se1  1  0.43130  0.13143  0.77100  1
 Se  Se2  1  0.56870  0.86857  0.22900  1
