CIF file written using JARVIS-Tools package.
data_PaCl4
_symmetry_space_group_name_H-M  'I4_1/amd'
_cell_length_a       7.02205
_cell_length_b       7.02204
_cell_length_c       7.02205
_cell_angle_alpha    106.442
_cell_angle_beta     106.442
_cell_angle_gamma    115.716

_symmetry_Int_Tables_number  141
_chemical_formula_structural  PaCl4
_chemical_formula_sum  Pa2Cl8
_cell_volume  264.1439477030295
_cell_formula_units_Z  2
loop_
  _symmetry_equiv_pos_site_id
 _symmetry_equiv_pos_as_xyz
 1  'x, y, z'
loop_
 _atom_site_type_symbol
 _atom_site_label
 _atom_site_symmetry_multiplicity
 _atom_site_fract_x
 _atom_site_fract_y
 _atom_site_fract_z
 _atom_site_fract_occupancy
 Cl  Cl1  1  0.20174  0.26360  0.56186  1
 Cl  Cl2  1  0.63989  0.20174  0.43814  1
 Cl  Cl3  1  0.36011  0.79826  0.56186  1
 Cl  Cl4  1  0.79826  0.73640  0.43814  1
 Cl  Cl5  1  0.79826  0.36011  0.06186  1
 Cl  Cl6  1  0.73640  0.79826  0.93814  1
 Cl  Cl7  1  0.20174  0.63989  0.93814  1
 Cl  Cl8  1  0.26360  0.20174  0.06186  1
 Pa  Pa1  1  0.87500  0.12500  0.75000  1
 Pa  Pa2  1  0.12500  0.87500  0.25000  1
