CIF file written using JARVIS-Tools package.
data_Na3GaS3
_symmetry_space_group_name_H-M  'P2_1/c'
_cell_length_a       6.90794
_cell_length_b       7.1671
_cell_length_c       12.7045
_cell_angle_alpha    90.9228
_cell_angle_beta     90
_cell_angle_gamma    90

_symmetry_Int_Tables_number  14
_chemical_formula_structural  Na3GaS3
_chemical_formula_sum  Na2Ga4S2
_cell_volume  628.9146090923699
_cell_formula_units_Z  4
loop_
  _symmetry_equiv_pos_site_id
 _symmetry_equiv_pos_as_xyz
 1  'x, y, z'
loop_
 _atom_site_type_symbol
 _atom_site_label
 _atom_site_symmetry_multiplicity
 _atom_site_fract_x
 _atom_site_fract_y
 _atom_site_fract_z
 _atom_site_fract_occupancy
 Ga  Ga1  1  0.64226  0.08610  0.41631  1
 Ga  Ga2  1  0.85774  0.58610  0.91631  1
 Ga  Ga3  1  0.14226  0.41390  0.08369  1
 Ga  Ga4  1  0.35774  0.91390  0.58369  1
 Na  Na1  1  0.99735  0.70974  0.39881  1
 Na  Na2  1  0.49735  0.79026  0.10119  1
 Na  Na3  1  0.00265  0.29026  0.60119  1
 Na  Na4  1  0.50265  0.20974  0.89881  1
 Na  Na5  1  0.46346  0.72423  0.79019  1
 Na  Na6  1  0.49665  0.66177  0.38963  1
 Na  Na7  1  0.00335  0.16177  0.88963  1
 Na  Na8  1  0.50335  0.33823  0.61037  1
 Na  Na9  1  0.03654  0.22423  0.29019  1
 Na  Na10  1  0.53654  0.27577  0.20981  1
 Na  Na11  1  0.96346  0.77577  0.70981  1
 Na  Na12  1  0.99665  0.83823  0.11037  1
 S  S1  1  0.25703  0.12012  0.07345  1
 S  S2  1  0.24257  0.57174  0.22871  1
 S  S3  1  0.74257  0.92826  0.27129  1
 S  S4  1  0.75743  0.42826  0.77129  1
 S  S5  1  0.25743  0.07174  0.72871  1
 S  S6  1  0.19931  0.57584  0.92998  1
 S  S7  1  0.30069  0.07584  0.42998  1
 S  S8  1  0.69931  0.92416  0.57002  1
 S  S9  1  0.74297  0.87988  0.92655  1
 S  S10  1  0.75703  0.37988  0.42655  1
 S  S11  1  0.80069  0.42416  0.07002  1
 S  S12  1  0.24297  0.62012  0.57345  1
