CIF file written using JARVIS-Tools package.
data_NaN3
_symmetry_space_group_name_H-M  'C2/m'
_cell_length_a       3.56752
_cell_length_b       3.58236
_cell_length_c       6.73846
_cell_angle_alpha    52.7693
_cell_angle_beta     58.136
_cell_angle_gamma    60.1022

_symmetry_Int_Tables_number  12
_chemical_formula_structural  NaN3
_chemical_formula_sum  NaN3
_cell_volume  56.15630750105659
_cell_formula_units_Z  1
loop_
  _symmetry_equiv_pos_site_id
 _symmetry_equiv_pos_as_xyz
 1  'x, y, z'
loop_
 _atom_site_type_symbol
 _atom_site_label
 _atom_site_symmetry_multiplicity
 _atom_site_fract_x
 _atom_site_fract_y
 _atom_site_fract_z
 _atom_site_fract_occupancy
 N  N1  1  0.87501  0.12499  0.50000  1
 N  N2  1  0.69200  0.04123  0.72394  1
 N  N3  1  0.05800  0.20878  0.27606  1
 Na  Na1  1  0.87500  0.12500  -0.00000  1
