CIF file written using JARVIS-Tools package.
data_ZnBi4O8
_symmetry_space_group_name_H-M  'P1'
_cell_length_a       3.50881
_cell_length_b       7.07117
_cell_length_c       9.31155
_cell_angle_alpha    69.8967
_cell_angle_beta     85.8297
_cell_angle_gamma    77.2332

_symmetry_Int_Tables_number  1
_chemical_formula_structural  ZnBi4O8
_chemical_formula_sum  ZnBi4O8
_cell_volume  211.59119585605163
_cell_formula_units_Z  1
loop_
  _symmetry_equiv_pos_site_id
 _symmetry_equiv_pos_as_xyz
 1  'x, y, z'
loop_
 _atom_site_type_symbol
 _atom_site_label
 _atom_site_symmetry_multiplicity
 _atom_site_fract_x
 _atom_site_fract_y
 _atom_site_fract_z
 _atom_site_fract_occupancy
 Bi  Bi1  1  0.42638  0.73152  0.48602  1
 Bi  Bi2  1  -0.01020  0.30009  0.85412  1
 Bi  Bi3  1  0.08415  0.64122  0.12020  1
 Bi  Bi4  1  0.72334  0.18880  0.47951  1
 O  O1  1  0.16821  0.38670  0.32721  1
 O  O2  1  0.50972  0.76673  0.20135  1
 O  O3  1  0.54610  0.26238  0.72084  1
 O  O4  1  0.90304  0.61487  0.69730  1
 O  O5  1  0.85571  -0.06170  0.37916  1
 O  O6  1  0.02691  0.87824  0.90199  1
 O  O7  1  0.31000  0.97067  0.60144  1
 O  O8  1  0.65142  0.52120  0.01318  1
 Zn  Zn1  1  0.58282  0.80864  0.80888  1
