CIF file written using JARVIS-Tools package.
data_Li2TiNiO4
_symmetry_space_group_name_H-M  'P2/m'
_cell_length_a       5.02696
_cell_length_b       2.96155
_cell_length_c       5.09981
_cell_angle_alpha    90
_cell_angle_beta     108.801
_cell_angle_gamma    90

_symmetry_Int_Tables_number  10
_chemical_formula_structural  Li2TiNiO4
_chemical_formula_sum  Li2TiNiO4
_cell_volume  71.8726370852244
_cell_formula_units_Z  1
loop_
  _symmetry_equiv_pos_site_id
 _symmetry_equiv_pos_as_xyz
 1  'x, y, z'
loop_
 _atom_site_type_symbol
 _atom_site_label
 _atom_site_symmetry_multiplicity
 _atom_site_fract_x
 _atom_site_fract_y
 _atom_site_fract_z
 _atom_site_fract_occupancy
 Li  Li1  1  0.00000  0.00000  0.00000  1
 Li  Li2  1  0.50000  0.50000  0.00000  1
 Ni  Ni1  1  -0.00000  0.50000  0.50000  1
 O  O1  1  0.74496  0.00000  0.26811  1
 O  O2  1  0.27271  0.50000  0.26691  1
 O  O3  1  0.25504  0.00000  0.73189  1
 O  O4  1  0.72729  0.50000  0.73309  1
 Ti  Ti1  1  0.50000  0.00000  0.50000  1
