CIF file written using JARVIS-Tools package.
data_Tm2Fe2Si2C
_symmetry_space_group_name_H-M  'C2/m'
_cell_length_a       3.88204
_cell_length_b       5.59316
_cell_length_c       5.59497
_cell_angle_alpha    72.9893
_cell_angle_beta     69.7008
_cell_angle_gamma    69.694

_symmetry_Int_Tables_number  12
_chemical_formula_structural  Tm2Fe2Si2C
_chemical_formula_sum  Tm2Fe2Si2C
_cell_volume  104.79034874775499
_cell_formula_units_Z  1
loop_
  _symmetry_equiv_pos_site_id
 _symmetry_equiv_pos_as_xyz
 1  'x, y, z'
loop_
 _atom_site_type_symbol
 _atom_site_label
 _atom_site_symmetry_multiplicity
 _atom_site_fract_x
 _atom_site_fract_y
 _atom_site_fract_z
 _atom_site_fract_occupancy
 C  C1  1  0.00000  0.00000  0.00000  1
 Fe  Fe1  1  0.20192  0.69327  0.90290  1
 Fe  Fe2  1  0.79808  0.30673  0.09710  1
 Si  Si1  1  0.15940  0.39163  0.28956  1
 Si  Si2  1  0.84060  0.60837  0.71044  1
 Tm  Tm1  1  0.55951  0.17308  0.70790  1
 Tm  Tm2  1  0.44049  0.82692  0.29210  1
