CIF file written using JARVIS-Tools package.
data_AgPbBrO
_symmetry_space_group_name_H-M  'P4/nmm'
_cell_length_a       3.99322
_cell_length_b       3.99322
_cell_length_c       13.4239
_cell_angle_alpha    90
_cell_angle_beta     90
_cell_angle_gamma    90

_symmetry_Int_Tables_number  129
_chemical_formula_structural  AgPbBrO
_chemical_formula_sum  Ag2Pb2Br2O2
_cell_volume  214.05434311258014
_cell_formula_units_Z  2
loop_
  _symmetry_equiv_pos_site_id
 _symmetry_equiv_pos_as_xyz
 1  'x, y, z'
loop_
 _atom_site_type_symbol
 _atom_site_label
 _atom_site_symmetry_multiplicity
 _atom_site_fract_x
 _atom_site_fract_y
 _atom_site_fract_z
 _atom_site_fract_occupancy
 Ag  Ag1  1  0.25000  0.25000  0.40512  1
 Ag  Ag2  1  0.75000  0.75000  0.59488  1
 Br  Br1  1  0.75000  0.75000  0.38075  1
 Br  Br2  1  0.25000  0.25000  0.61925  1
 O  O1  1  0.75000  0.25000  0.00000  1
 O  O2  1  0.25000  0.75000  0.00000  1
 Pb  Pb1  1  0.75000  0.75000  0.09077  1
 Pb  Pb2  1  0.25000  0.25000  0.90923  1
