CIF file written using JARVIS-Tools package.
data_AsO2
_symmetry_space_group_name_H-M  'Pnma'
_cell_length_a       5.34277
_cell_length_b       7.30496
_cell_length_c       8.54541
_cell_angle_alpha    90
_cell_angle_beta     90
_cell_angle_gamma    90

_symmetry_Int_Tables_number  62
_chemical_formula_structural  AsO2
_chemical_formula_sum  As8O6
_cell_volume  333.5162889570371
_cell_formula_units_Z  8
loop_
  _symmetry_equiv_pos_site_id
 _symmetry_equiv_pos_as_xyz
 1  'x, y, z'
loop_
 _atom_site_type_symbol
 _atom_site_label
 _atom_site_symmetry_multiplicity
 _atom_site_fract_x
 _atom_site_fract_y
 _atom_site_fract_z
 _atom_site_fract_occupancy
 As  As1  1  0.25000  0.17158  0.06966  1
 As  As2  1  0.75000  0.67158  0.43034  1
 As  As3  1  0.25000  0.32842  0.56966  1
 As  As4  1  0.25000  0.79958  0.26860  1
 As  As5  1  0.75000  0.20042  0.73140  1
 As  As6  1  0.75000  0.29958  0.23140  1
 As  As7  1  0.25000  0.70042  0.76860  1
 As  As8  1  0.75000  0.82842  0.93034  1
 O  O1  1  0.75000  0.55413  0.59727  1
 O  O2  1  0.75000  0.94587  0.09727  1
 O  O3  1  0.25000  0.05413  0.90273  1
 O  O4  1  0.25000  0.44556  0.74932  1
 O  O5  1  0.75000  0.55444  0.25068  1
 O  O6  1  0.75000  0.94556  0.75068  1
 O  O7  1  0.25000  0.05444  0.24932  1
 O  O8  1  0.00522  0.67919  0.91937  1
 O  O9  1  0.49478  0.67919  0.91937  1
 O  O10  1  0.25000  0.44587  0.40273  1
 O  O11  1  0.00522  0.82081  0.41937  1
 O  O12  1  0.50522  0.32081  0.08063  1
 O  O13  1  0.99478  0.17919  0.58063  1
 O  O14  1  0.49478  0.82081  0.41937  1
 O  O15  1  0.99478  0.32081  0.08063  1
 O  O16  1  0.50522  0.17919  0.58063  1
