CIF file written using JARVIS-Tools package.
data_Ba2ZnAg
_symmetry_space_group_name_H-M  'Immm'
_cell_length_a       13.5625
_cell_length_b       13.3337
_cell_length_c       13.3337
_cell_angle_alpha    58.9311
_cell_angle_beta     59.4306
_cell_angle_gamma    59.4306

_symmetry_Int_Tables_number  71
_chemical_formula_structural  Ba2ZnAg
_chemical_formula_sum  Ba2ZnAg
_cell_volume  1676.3428664790144
_cell_formula_units_Z  1
loop_
  _symmetry_equiv_pos_site_id
 _symmetry_equiv_pos_as_xyz
 1  'x, y, z'
loop_
 _atom_site_type_symbol
 _atom_site_label
 _atom_site_symmetry_multiplicity
 _atom_site_fract_x
 _atom_site_fract_y
 _atom_site_fract_z
 _atom_site_fract_occupancy
 Ag  Ag1  1  0.50000  -0.00000  -0.00000  1
 Ba  Ba1  1  0.74177  0.00000  0.00000  1
 Ba  Ba2  1  0.25823  -0.00000  -0.00000  1
 Zn  Zn1  1  0.00000  0.00000  0.00000  1
