CIF file written using JARVIS-Tools package.
data_LiSc2Hg
_symmetry_space_group_name_H-M  'P4mm'
_cell_length_a       14.3978
_cell_length_b       8.37726
_cell_length_c       7.61203
_cell_angle_alpha    24.6856
_cell_angle_beta     18.9668
_cell_angle_gamma    16.1031

_symmetry_Int_Tables_number  99
_chemical_formula_structural  LiSc2Hg
_chemical_formula_sum  LiSc2Hg
_cell_volume  82.76828426649605
_cell_formula_units_Z  1
loop_
  _symmetry_equiv_pos_site_id
 _symmetry_equiv_pos_as_xyz
 1  'x, y, z'
loop_
 _atom_site_type_symbol
 _atom_site_label
 _atom_site_symmetry_multiplicity
 _atom_site_fract_x
 _atom_site_fract_y
 _atom_site_fract_z
 _atom_site_fract_occupancy
 Hg  Hg1  1  0.72664  -0.35169  -0.00003  1
 Li  Li1  1  0.02468  -0.14972  0.00008  1
 Sc  Sc1  1  0.48205  0.39296  -0.00006  1
 Sc  Sc2  1  0.26664  0.10844  0.00001  1
