CIF file written using JARVIS-Tools package.
data_CdI2
_symmetry_space_group_name_H-M  'P-3m1'
_cell_length_a       4.28467
_cell_length_b       4.28467
_cell_length_c       20.6673
_cell_angle_alpha    90
_cell_angle_beta     90
_cell_angle_gamma    120

_symmetry_Int_Tables_number  164
_chemical_formula_structural  CdI2
_chemical_formula_sum  Cd3I6
_cell_volume  328.586783952356
_cell_formula_units_Z  3
loop_
  _symmetry_equiv_pos_site_id
 _symmetry_equiv_pos_as_xyz
 1  'x, y, z'
loop_
 _atom_site_type_symbol
 _atom_site_label
 _atom_site_symmetry_multiplicity
 _atom_site_fract_x
 _atom_site_fract_y
 _atom_site_fract_z
 _atom_site_fract_occupancy
 Cd  Cd1  1  0.66667  0.33333  0.33302  1
 Cd  Cd2  1  0.33333  0.66667  0.66698  1
 Cd  Cd3  1  0.00000  0.00000  0.00000  1
 I  I1  1  0.33333  0.66667  0.08394  1
 I  I2  1  0.33333  0.66667  0.41692  1
 I  I3  1  0.66667  0.33333  0.91606  1
 I  I4  1  0.66667  0.33333  0.58308  1
 I  I5  1  0.00000  0.00000  0.24911  1
 I  I6  1  0.00000  0.00000  0.75089  1
