CIF file written using JARVIS-Tools package.
data_Mg3Mo
_symmetry_space_group_name_H-M  'Pmm2'
_cell_length_a       6.13721
_cell_length_b       2.84367
_cell_length_c       4.88907
_cell_angle_alpha    90
_cell_angle_beta     90
_cell_angle_gamma    117.603

_symmetry_Int_Tables_number  25
_chemical_formula_structural  Mg3Mo
_chemical_formula_sum  Mg3Mo
_cell_volume  75.61288149531983
_cell_formula_units_Z  1
loop_
  _symmetry_equiv_pos_site_id
 _symmetry_equiv_pos_as_xyz
 1  'x, y, z'
loop_
 _atom_site_type_symbol
 _atom_site_label
 _atom_site_symmetry_multiplicity
 _atom_site_fract_x
 _atom_site_fract_y
 _atom_site_fract_z
 _atom_site_fract_occupancy
 Mg  Mg1  1  0.65099  0.65099  0.25000  1
 Mg  Mg2  1  0.32960  0.32960  0.75000  1
 Mg  Mg3  1  0.86796  0.36796  0.75000  1
 Mo  Mo1  1  0.15145  0.65145  0.25000  1
