CIF file written using JARVIS-Tools package.
data_Mg3Co
_symmetry_space_group_name_H-M  'Pmm2'
_cell_length_a       5.9437
_cell_length_b       2.94066
_cell_length_c       4.6465
_cell_angle_alpha    90
_cell_angle_beta     90
_cell_angle_gamma    119.653

_symmetry_Int_Tables_number  25
_chemical_formula_structural  Mg3Co
_chemical_formula_sum  Mg3Co
_cell_volume  70.5770666549977
_cell_formula_units_Z  1
loop_
  _symmetry_equiv_pos_site_id
 _symmetry_equiv_pos_as_xyz
 1  'x, y, z'
loop_
 _atom_site_type_symbol
 _atom_site_label
 _atom_site_symmetry_multiplicity
 _atom_site_fract_x
 _atom_site_fract_y
 _atom_site_fract_z
 _atom_site_fract_occupancy
 Co  Co1  1  0.15557  0.65557  0.25000  1
 Mg  Mg1  1  0.66137  0.66137  0.25000  1
 Mg  Mg2  1  0.32403  0.32403  0.75000  1
 Mg  Mg3  1  0.85902  0.35902  0.75000  1
