CIF file written using JARVIS-Tools package.
data_CdCuPd2
_symmetry_space_group_name_H-M  'Immm'
_cell_length_a       10.0039
_cell_length_b       10.8024
_cell_length_c       10.8024
_cell_angle_alpha    61.5813
_cell_angle_beta     62.4163
_cell_angle_gamma    62.4163

_symmetry_Int_Tables_number  71
_chemical_formula_structural  CdCuPd2
_chemical_formula_sum  CdCuPd2
_cell_volume  864.7809710300733
_cell_formula_units_Z  1
loop_
  _symmetry_equiv_pos_site_id
 _symmetry_equiv_pos_as_xyz
 1  'x, y, z'
loop_
 _atom_site_type_symbol
 _atom_site_label
 _atom_site_symmetry_multiplicity
 _atom_site_fract_x
 _atom_site_fract_y
 _atom_site_fract_z
 _atom_site_fract_occupancy
 Cd  Cd1  1  0.50000  -0.00000  -0.00000  1
 Cu  Cu1  1  0.00000  0.00000  0.00000  1
 Pd  Pd1  1  0.76388  0.00000  0.00000  1
 Pd  Pd2  1  0.23612  -0.00000  -0.00000  1
