CIF file written using JARVIS-Tools package.
data_YGaAg2
_symmetry_space_group_name_H-M  'Immm'
_cell_length_a       11.3382
_cell_length_b       6.36089
_cell_length_c       6.36088
_cell_angle_alpha    30.0018
_cell_angle_beta     26.9695
_cell_angle_gamma    26.9695

_symmetry_Int_Tables_number  71
_chemical_formula_structural  YGaAg2
_chemical_formula_sum  YGaAg2
_cell_volume  88.43818140614592
_cell_formula_units_Z  1
loop_
  _symmetry_equiv_pos_site_id
 _symmetry_equiv_pos_as_xyz
 1  'x, y, z'
loop_
 _atom_site_type_symbol
 _atom_site_label
 _atom_site_symmetry_multiplicity
 _atom_site_fract_x
 _atom_site_fract_y
 _atom_site_fract_z
 _atom_site_fract_occupancy
 Ag  Ag1  1  0.77265  0.00000  0.00000  1
 Ag  Ag2  1  0.22735  -0.00000  -0.00000  1
 Ga  Ga1  1  0.00000  0.00000  0.00000  1
 Y  Y1  1  0.50000  -0.00000  0.00000  1
