CIF file written using JARVIS-Tools package.
data_ZnH6Se2O8
_symmetry_space_group_name_H-M  'P2_1/c'
_cell_length_a       7.13391
_cell_length_b       7.80791
_cell_length_c       6.85375
_cell_angle_alpha    90
_cell_angle_beta     90
_cell_angle_gamma    69.1375

_symmetry_Int_Tables_number  14
_chemical_formula_structural  ZnH6Se2O8
_chemical_formula_sum  Zn2H2Se4O6
_cell_volume  356.7309300462883
_cell_formula_units_Z  2
loop_
  _symmetry_equiv_pos_site_id
 _symmetry_equiv_pos_as_xyz
 1  'x, y, z'
loop_
 _atom_site_type_symbol
 _atom_site_label
 _atom_site_symmetry_multiplicity
 _atom_site_fract_x
 _atom_site_fract_y
 _atom_site_fract_z
 _atom_site_fract_occupancy
 H  H1  1  0.12083  0.08225  0.65597  1
 H  H2  1  0.23798  0.25970  0.47728  1
 H  H3  1  0.26202  0.24030  0.97728  1
 H  H4  1  0.26335  0.63015  0.21277  1
 H  H5  1  0.23665  0.86985  0.71277  1
 H  H6  1  0.76335  0.13015  0.28723  1
 H  H7  1  0.37917  0.41775  0.15597  1
 H  H8  1  0.73665  0.36985  0.78723  1
 H  H9  1  0.73798  0.75970  0.02272  1
 H  H10  1  0.76202  0.74030  0.52272  1
 H  H11  1  0.87917  0.91775  0.34403  1
 H  H12  1  0.62083  0.58225  0.84403  1
 O  O1  1  0.39577  0.25635  0.95874  1
 O  O2  1  0.53790  0.75431  0.43250  1
 O  O3  1  0.23844  0.84488  0.17800  1
 O  O4  1  0.46210  0.24569  0.56750  1
 O  O5  1  0.26156  0.65512  0.67800  1
 O  O6  1  0.30744  0.50030  0.26341  1
 O  O7  1  0.10423  0.24365  0.45874  1
 O  O8  1  0.03790  0.25431  0.06750  1
 O  O9  1  0.60423  0.74365  0.04126  1
 O  O10  1  0.76156  0.15512  0.82200  1
 O  O11  1  0.89577  0.75635  0.54126  1
 O  O12  1  0.80744  0.00030  0.23659  1
 O  O13  1  0.73844  0.34488  0.32200  1
 O  O14  1  0.96210  0.74569  0.93250  1
 O  O15  1  0.19256  -0.00030  0.76341  1
 O  O16  1  0.69256  0.49970  0.73659  1
 Se  Se1  1  0.94831  0.39010  0.26657  1
 Se  Se2  1  0.55169  0.10990  0.76657  1
 Se  Se3  1  0.05169  0.60990  0.73343  1
 Se  Se4  1  0.44831  0.89010  0.23343  1
 Zn  Zn1  1  0.00000  0.00000  0.00000  1
 Zn  Zn2  1  0.50000  0.50000  0.50000  1
