CIF file written using JARVIS-Tools package.
data_K4SnO4
_symmetry_space_group_name_H-M  'P-1'
_cell_length_a       6.5273
_cell_length_b       6.52117
_cell_length_c       9.79388
_cell_angle_alpha    79.4814
_cell_angle_beta     71.5346
_cell_angle_gamma    67.212

_symmetry_Int_Tables_number  2
_chemical_formula_structural  K4SnO4
_chemical_formula_sum  K8Sn2O8
_cell_volume  363.69913285164836
_cell_formula_units_Z  2
loop_
  _symmetry_equiv_pos_site_id
 _symmetry_equiv_pos_as_xyz
 1  'x, y, z'
loop_
 _atom_site_type_symbol
 _atom_site_label
 _atom_site_symmetry_multiplicity
 _atom_site_fract_x
 _atom_site_fract_y
 _atom_site_fract_z
 _atom_site_fract_occupancy
 K  K1  1  0.59071  0.24218  0.17054  1
 K  K2  1  0.40929  0.75782  0.82946  1
 K  K3  1  0.51324  0.77442  0.43914  1
 K  K4  1  0.48676  0.22558  0.56086  1
 K  K5  1  0.23985  0.25898  0.97461  1
 K  K6  1  0.76015  0.74102  0.02539  1
 K  K7  1  0.96233  0.72060  0.61635  1
 K  K8  1  0.03767  0.27940  0.38365  1
 O  O1  1  0.34943  0.97122  0.19257  1
 O  O2  1  0.65057  0.02878  0.80743  1
 O  O3  1  0.83984  0.96820  0.35690  1
 O  O4  1  0.16016  0.03180  0.64310  1
 O  O5  1  0.15710  0.63430  0.08443  1
 O  O6  1  0.70136  0.46956  0.62134  1
 O  O7  1  0.84290  0.36570  0.91557  1
 O  O8  1  0.29864  0.53044  0.37866  1
 Sn  Sn1  1  0.84544  0.21978  0.75329  1
 Sn  Sn2  1  0.15456  0.78022  0.24671  1
