CIF file written using JARVIS-Tools package.
data_Pb
_symmetry_space_group_name_H-M  'R-3m'
_cell_length_a       3.4904
_cell_length_b       3.4904
_cell_length_c       6.50182
_cell_angle_alpha    74.4298
_cell_angle_beta     74.4298
_cell_angle_gamma    59.9999

_symmetry_Int_Tables_number  166
_chemical_formula_structural  Pb
_chemical_formula_sum  Pb2
_cell_volume  65.22080895072118
_cell_formula_units_Z  2
loop_
  _symmetry_equiv_pos_site_id
 _symmetry_equiv_pos_as_xyz
 1  'x, y, z'
loop_
 _atom_site_type_symbol
 _atom_site_label
 _atom_site_symmetry_multiplicity
 _atom_site_fract_x
 _atom_site_fract_y
 _atom_site_fract_z
 _atom_site_fract_occupancy
 Pb  Pb1  1  0.09082  0.09082  0.72753  1
 Pb  Pb2  1  0.90918  0.90918  0.27247  1
