CIF file written using JARVIS-Tools package.
data_Li2MnF6
_symmetry_space_group_name_H-M  'P-3m1'
_cell_length_a       8.52474
_cell_length_b       8.52474
_cell_length_c       4.3894
_cell_angle_alpha    90
_cell_angle_beta     90
_cell_angle_gamma    120

_symmetry_Int_Tables_number  164
_chemical_formula_structural  Li2MnF6
_chemical_formula_sum  Li6Mn3F8
_cell_volume  276.24768227124713
_cell_formula_units_Z  3
loop_
  _symmetry_equiv_pos_site_id
 _symmetry_equiv_pos_as_xyz
 1  'x, y, z'
loop_
 _atom_site_type_symbol
 _atom_site_label
 _atom_site_symmetry_multiplicity
 _atom_site_fract_x
 _atom_site_fract_y
 _atom_site_fract_z
 _atom_site_fract_occupancy
 F  F1  1  0.56412  0.43588  0.74865  1
 F  F2  1  0.10537  0.89463  0.22022  1
 F  F3  1  0.21075  0.10537  0.77978  1
 F  F4  1  0.89463  0.78925  0.77978  1
 F  F5  1  0.23146  0.46292  0.72966  1
 F  F6  1  0.23146  0.76854  0.72966  1
 F  F7  1  0.89463  0.10537  0.77978  1
 F  F8  1  0.76854  0.23146  0.27034  1
 F  F9  1  0.53708  0.76854  0.72966  1
 F  F10  1  0.76854  0.53708  0.27034  1
 F  F11  1  0.12824  0.56412  0.25135  1
 F  F12  1  0.43588  0.56412  0.25135  1
 F  F13  1  0.46292  0.23146  0.27034  1
 F  F14  1  0.78925  0.89463  0.22022  1
 F  F15  1  0.56412  0.12824  0.74865  1
 F  F16  1  0.10537  0.21075  0.22022  1
 F  F17  1  0.43588  0.87176  0.25135  1
 F  F18  1  0.87176  0.43588  0.74865  1
 Li  Li1  1  0.65715  0.65715  0.00000  1
 Li  Li2  1  0.34285  -0.00000  0.00000  1
 Li  Li3  1  -0.00000  0.34285  0.00000  1
 Li  Li4  1  0.00000  0.65715  0.00000  1
 Li  Li5  1  0.34285  0.34285  0.00000  1
 Li  Li6  1  0.65715  0.00000  0.00000  1
 Mn  Mn1  1  0.66667  0.33333  0.50735  1
 Mn  Mn2  1  0.00000  0.00000  0.00000  1
 Mn  Mn3  1  0.33333  0.66667  0.49265  1
