CIF file written using JARVIS-Tools package.
data_AlH3O3
_symmetry_space_group_name_H-M  'P1'
_cell_length_a       5.1772
_cell_length_b       5.10545
_cell_length_c       5.16193
_cell_angle_alpha    75.6731
_cell_angle_beta     112.384
_cell_angle_gamma    122.895

_symmetry_Int_Tables_number  1
_chemical_formula_structural  AlH3O3
_chemical_formula_sum  Al2H6O6
_cell_volume  105.7864535559766
_cell_formula_units_Z  2
loop_
  _symmetry_equiv_pos_site_id
 _symmetry_equiv_pos_as_xyz
 1  'x, y, z'
loop_
 _atom_site_type_symbol
 _atom_site_label
 _atom_site_symmetry_multiplicity
 _atom_site_fract_x
 _atom_site_fract_y
 _atom_site_fract_z
 _atom_site_fract_occupancy
 Al  Al1  1  0.28475  0.62600  0.00236  1
 Al  Al2  1  0.60741  0.30673  0.00036  1
 H  H1  1  0.51604  -0.00470  0.60893  1
 H  H2  1  0.15734  0.34558  0.58808  1
 H  H3  1  0.90992  0.83166  0.77261  1
 H  H4  1  0.18446  0.89341  0.24043  1
 H  H5  1  0.73073  0.57908  0.42567  1
 H  H6  1  0.95564  0.09743  0.22188  1
 O  O1  1  0.50381  -0.01298  0.79659  1
 O  O2  1  0.23095  0.33509  0.79739  1
 O  O3  1  0.87667  0.62052  0.78505  1
 O  O4  1  0.39208  0.94277  0.23083  1
 O  O5  1  0.67288  0.60499  0.21671  1
 O  O6  1  0.01381  0.31464  0.22679  1
