CIF file written using JARVIS-Tools package.
data_Mn2O3
_symmetry_space_group_name_H-M  'R-3c'
_cell_length_a       4.93931
_cell_length_b       4.93944
_cell_length_c       5.35947
_cell_angle_alpha    62.5362
_cell_angle_beta     89.9724
_cell_angle_gamma    59.9964

_symmetry_Int_Tables_number  167
_chemical_formula_structural  Mn2O3
_chemical_formula_sum  Mn4O6
_cell_volume  95.86132474692597
_cell_formula_units_Z  2
loop_
  _symmetry_equiv_pos_site_id
 _symmetry_equiv_pos_as_xyz
 1  'x, y, z'
loop_
 _atom_site_type_symbol
 _atom_site_label
 _atom_site_symmetry_multiplicity
 _atom_site_fract_x
 _atom_site_fract_y
 _atom_site_fract_z
 _atom_site_fract_occupancy
 Mn  Mn1  1  0.65347  0.69299  0.96047  1
 Mn  Mn2  1  0.34653  0.30701  0.03953  1
 Mn  Mn3  1  0.15349  0.69296  0.46049  1
 Mn  Mn4  1  0.84651  0.30705  0.53951  1
 O  O1  1  0.56051  0.50005  0.74995  1
 O  O2  1  0.75000  0.81053  0.24995  1
 O  O3  1  0.06046  0.18951  0.25001  1
 O  O4  1  0.93954  0.81049  0.74999  1
 O  O5  1  0.25000  0.18947  0.75005  1
 O  O6  1  0.43949  0.49995  0.25005  1
