CIF file written using JARVIS-Tools package.
data_Mg5H8O9
_symmetry_space_group_name_H-M  'P-3m1'
_cell_length_a       3.12956
_cell_length_b       3.12957
_cell_length_c       21.5038
_cell_angle_alpha    90
_cell_angle_beta     90.0002
_cell_angle_gamma    120

_symmetry_Int_Tables_number  164
_chemical_formula_structural  Mg5H8O9
_chemical_formula_sum  Mg5H8O9
_cell_volume  182.39513667725527
_cell_formula_units_Z  1
loop_
  _symmetry_equiv_pos_site_id
 _symmetry_equiv_pos_as_xyz
 1  'x, y, z'
loop_
 _atom_site_type_symbol
 _atom_site_label
 _atom_site_symmetry_multiplicity
 _atom_site_fract_x
 _atom_site_fract_y
 _atom_site_fract_z
 _atom_site_fract_occupancy
 H  H1  1  0.33335  0.66667  0.40567  1
 H  H2  1  0.33333  0.66666  0.84941  1
 H  H3  1  0.66665  0.33333  0.59433  1
 H  H4  1  0.66667  0.33334  0.15059  1
 H  H5  1  0.33335  0.66667  0.62454  1
 H  H6  1  0.66668  0.33334  0.81296  1
 H  H7  1  0.33332  0.66666  0.18704  1
 H  H8  1  0.66665  0.33333  0.37546  1
 Mg  Mg1  1  0.00000  0.00000  0.50000  1
 Mg  Mg2  1  0.33337  0.66668  0.05654  1
 Mg  Mg3  1  -0.00002  -0.00001  0.71889  1
 Mg  Mg4  1  0.00002  0.00001  0.28111  1
 Mg  Mg5  1  0.66663  0.33332  0.94346  1
 O  O1  1  0.33332  0.66666  0.66981  1
 O  O2  1  0.33333  0.66666  0.23223  1
 O  O3  1  0.66667  0.33334  0.54906  1
 O  O4  1  0.33333  0.66666  0.45094  1
 O  O5  1  0.66671  0.33336  0.10533  1
 O  O6  1  0.33329  0.66664  0.89467  1
 O  O7  1  0.00000  0.00000  0.00000  1
 O  O8  1  0.66668  0.33334  0.33019  1
 O  O9  1  0.66667  0.33334  0.76777  1
