CIF file written using JARVIS-Tools package.
data_MgScIr2
_symmetry_space_group_name_H-M  'C2/m'
_cell_length_a       11.0351
_cell_length_b       7.56145
_cell_length_c       7.56146
_cell_angle_alpha    22.9831
_cell_angle_beta     19.0993
_cell_angle_gamma    19.0992

_symmetry_Int_Tables_number  12
_chemical_formula_structural  MgScIr2
_chemical_formula_sum  MgScIr2
_cell_volume  65.25274766122266
_cell_formula_units_Z  1
loop_
  _symmetry_equiv_pos_site_id
 _symmetry_equiv_pos_as_xyz
 1  'x, y, z'
loop_
 _atom_site_type_symbol
 _atom_site_label
 _atom_site_symmetry_multiplicity
 _atom_site_fract_x
 _atom_site_fract_y
 _atom_site_fract_z
 _atom_site_fract_occupancy
 Ir  Ir1  1  0.73519  0.01502  0.01502  1
 Ir  Ir2  1  0.26481  -0.01502  -0.01502  1
 Mg  Mg1  1  0.00000  0.00000  0.00000  1
 Sc  Sc1  1  0.50000  -0.00000  -0.00000  1
