CIF file written using JARVIS-Tools package.
data_MoPb
_symmetry_space_group_name_H-M  'I4_1/amd'
_cell_length_a       4.26497
_cell_length_b       4.26497
_cell_length_c       5.40555
_cell_angle_alpha    113.235
_cell_angle_beta     113.235
_cell_angle_gamma    90

_symmetry_Int_Tables_number  141
_chemical_formula_structural  MoPb
_chemical_formula_sum  Mo2Pb2
_cell_volume  81.60172072722563
_cell_formula_units_Z  2
loop_
  _symmetry_equiv_pos_site_id
 _symmetry_equiv_pos_as_xyz
 1  'x, y, z'
loop_
 _atom_site_type_symbol
 _atom_site_label
 _atom_site_symmetry_multiplicity
 _atom_site_fract_x
 _atom_site_fract_y
 _atom_site_fract_z
 _atom_site_fract_occupancy
 Mo  Mo1  1  0.25000  0.75000  0.50000  1
 Mo  Mo2  1  0.00000  0.00000  0.00000  1
 Pb  Pb1  1  0.75000  0.25000  0.50000  1
 Pb  Pb2  1  0.50000  0.50000  0.00000  1
