CIF file written using JARVIS-Tools package.
data_ZrCl3
_symmetry_space_group_name_H-M  'P-31m'
_cell_length_a       6.1378
_cell_length_b       6.1378
_cell_length_c       6.02275
_cell_angle_alpha    90
_cell_angle_beta     90
_cell_angle_gamma    120

_symmetry_Int_Tables_number  162
_chemical_formula_structural  ZrCl3
_chemical_formula_sum  Zr2Cl6
_cell_volume  196.49509127389717
_cell_formula_units_Z  2
loop_
  _symmetry_equiv_pos_site_id
 _symmetry_equiv_pos_as_xyz
 1  'x, y, z'
loop_
 _atom_site_type_symbol
 _atom_site_label
 _atom_site_symmetry_multiplicity
 _atom_site_fract_x
 _atom_site_fract_y
 _atom_site_fract_z
 _atom_site_fract_occupancy
 Cl  Cl1  1  0.67063  0.67063  0.25025  1
 Cl  Cl2  1  0.32937  0.32937  0.74975  1
 Cl  Cl3  1  0.00000  0.32937  0.25025  1
 Cl  Cl4  1  0.32937  0.00000  0.25025  1
 Cl  Cl5  1  0.67063  0.00000  0.74975  1
 Cl  Cl6  1  -0.00000  0.67063  0.74975  1
 Zr  Zr1  1  0.66667  0.33333  0.00000  1
 Zr  Zr2  1  0.33333  0.66667  0.00000  1
