CIF file written using JARVIS-Tools package.
data_Ni2P2O7
_symmetry_space_group_name_H-M  'C2/m'
_cell_length_a       4.47534
_cell_length_b       5.24925
_cell_length_c       5.24925
_cell_angle_alpha    104.106
_cell_angle_beta     97.7604
_cell_angle_gamma    97.7603

_symmetry_Int_Tables_number  12
_chemical_formula_structural  Ni2P2O7
_chemical_formula_sum  Ni2P2O7
_cell_volume  116.67899087718651
_cell_formula_units_Z  1
loop_
  _symmetry_equiv_pos_site_id
 _symmetry_equiv_pos_as_xyz
 1  'x, y, z'
loop_
 _atom_site_type_symbol
 _atom_site_label
 _atom_site_symmetry_multiplicity
 _atom_site_fract_x
 _atom_site_fract_y
 _atom_site_fract_z
 _atom_site_fract_occupancy
 Ni  Ni1  1  0.50000  0.31348  0.68652  1
 Ni  Ni2  1  0.50000  0.68652  0.31348  1
 O  O1  1  0.27634  0.92455  0.61435  1
 O  O2  1  0.72366  0.38565  0.07545  1
 O  O3  1  0.72366  0.07545  0.38565  1
 O  O4  1  0.27634  0.61435  0.92455  1
 O  O5  1  -0.00000  0.00000  0.00000  1
 O  O6  1  0.21912  0.38056  0.38056  1
 O  O7  1  0.78088  0.61944  0.61944  1
 P  P1  1  0.90800  0.22109  0.22109  1
 P  P2  1  0.09200  0.77891  0.77891  1
