CIF file written using JARVIS-Tools package.
data_Mg3Cu
_symmetry_space_group_name_H-M  'Pmm2'
_cell_length_a       6.00031
_cell_length_b       3.11657
_cell_length_c       4.70586
_cell_angle_alpha    90
_cell_angle_beta     90
_cell_angle_gamma    121.292

_symmetry_Int_Tables_number  25
_chemical_formula_structural  Mg3Cu
_chemical_formula_sum  Mg3Cu
_cell_volume  75.19971561024315
_cell_formula_units_Z  1
loop_
  _symmetry_equiv_pos_site_id
 _symmetry_equiv_pos_as_xyz
 1  'x, y, z'
loop_
 _atom_site_type_symbol
 _atom_site_label
 _atom_site_symmetry_multiplicity
 _atom_site_fract_x
 _atom_site_fract_y
 _atom_site_fract_z
 _atom_site_fract_occupancy
 Cu  Cu1  1  0.16573  0.66573  0.25000  1
 Mg  Mg1  1  0.67574  0.67574  0.25000  1
 Mg  Mg2  1  0.31791  0.31791  0.75000  1
 Mg  Mg3  1  0.84062  0.34062  0.75000  1
