CIF file written using JARVIS-Tools package.
data_SiO2
_symmetry_space_group_name_H-M  'P-4n2'
_cell_length_a       6.9212
_cell_length_b       6.9212
_cell_length_c       7.08139
_cell_angle_alpha    90
_cell_angle_beta     90
_cell_angle_gamma    90

_symmetry_Int_Tables_number  118
_chemical_formula_structural  SiO2
_chemical_formula_sum  Si8O6
_cell_volume  339.2196395697304
_cell_formula_units_Z  8
loop_
  _symmetry_equiv_pos_site_id
 _symmetry_equiv_pos_as_xyz
 1  'x, y, z'
loop_
 _atom_site_type_symbol
 _atom_site_label
 _atom_site_symmetry_multiplicity
 _atom_site_fract_x
 _atom_site_fract_y
 _atom_site_fract_z
 _atom_site_fract_occupancy
 O  O1  1  0.50000  0.00000  0.55000  1
 O  O2  1  0.15656  0.81824  0.58454  1
 O  O3  1  0.34344  0.31824  0.08454  1
 O  O4  1  0.65656  0.68176  0.08454  1
 O  O5  1  0.33779  0.83779  0.25000  1
 O  O6  1  0.16221  0.33779  0.75000  1
 O  O7  1  0.50000  0.00000  0.95000  1
 O  O8  1  0.00000  0.50000  0.05000  1
 O  O9  1  0.31824  0.65656  0.91546  1
 O  O10  1  0.00000  0.50000  0.45000  1
 O  O11  1  0.84344  0.18176  0.58454  1
 O  O12  1  0.83779  0.66221  0.75000  1
 O  O13  1  0.18176  0.15656  0.41546  1
 O  O14  1  0.81824  0.84344  0.41546  1
 O  O15  1  0.66221  0.16221  0.25000  1
 O  O16  1  0.68176  0.34344  0.91546  1
 Si  Si1  1  0.54952  0.20617  0.05062  1
 Si  Si2  1  0.29383  0.95048  0.44938  1
 Si  Si3  1  0.70617  0.04952  0.44938  1
 Si  Si4  1  0.79383  0.54952  0.94938  1
 Si  Si5  1  0.45048  0.79383  0.05062  1
 Si  Si6  1  0.95048  0.70617  0.55062  1
 Si  Si7  1  0.04952  0.29383  0.55062  1
 Si  Si8  1  0.20617  0.45048  0.94938  1
