CIF file written using JARVIS-Tools package.
data_Mg3Cr
_symmetry_space_group_name_H-M  'Pmm2'
_cell_length_a       6.0562
_cell_length_b       2.85124
_cell_length_c       4.78456
_cell_angle_alpha    90
_cell_angle_beta     90
_cell_angle_gamma    118.086

_symmetry_Int_Tables_number  25
_chemical_formula_structural  Mg3Cr
_chemical_formula_sum  Mg3Cr
_cell_volume  72.88927538101586
_cell_formula_units_Z  1
loop_
  _symmetry_equiv_pos_site_id
 _symmetry_equiv_pos_as_xyz
 1  'x, y, z'
loop_
 _atom_site_type_symbol
 _atom_site_label
 _atom_site_symmetry_multiplicity
 _atom_site_fract_x
 _atom_site_fract_y
 _atom_site_fract_z
 _atom_site_fract_occupancy
 Cr  Cr1  1  0.15327  0.65327  0.25000  1
 Mg  Mg1  1  0.65267  0.65267  0.25000  1
 Mg  Mg2  1  0.32717  0.32717  0.75000  1
 Mg  Mg3  1  0.86689  0.36689  0.75000  1
