CIF file written using JARVIS-Tools package.
data_RbMg3
_symmetry_space_group_name_H-M  'Pmm2'
_cell_length_a       8.65078
_cell_length_b       3.3734
_cell_length_c       5.12423
_cell_angle_alpha    90
_cell_angle_beta     90
_cell_angle_gamma    112.952

_symmetry_Int_Tables_number  25
_chemical_formula_structural  RbMg3
_chemical_formula_sum  RbMg3
_cell_volume  137.70001280546964
_cell_formula_units_Z  1
loop_
  _symmetry_equiv_pos_site_id
 _symmetry_equiv_pos_as_xyz
 1  'x, y, z'
loop_
 _atom_site_type_symbol
 _atom_site_label
 _atom_site_symmetry_multiplicity
 _atom_site_fract_x
 _atom_site_fract_y
 _atom_site_fract_z
 _atom_site_fract_occupancy
 Mg  Mg1  1  0.65900  0.65900  0.25000  1
 Mg  Mg2  1  0.43653  0.43653  0.75000  1
 Mg  Mg3  1  0.77040  0.27040  0.75000  1
 Rb  Rb1  1  0.13407  0.63407  0.25000  1
