CIF file written using JARVIS-Tools package.
data_NiSeO4
_symmetry_space_group_name_H-M  'Cmcm'
_cell_length_a       4.9235
_cell_length_b       4.9235
_cell_length_c       6.27396
_cell_angle_alpha    90
_cell_angle_beta     90
_cell_angle_gamma    112.432

_symmetry_Int_Tables_number  63
_chemical_formula_structural  NiSeO4
_chemical_formula_sum  Ni2Se2O8
_cell_volume  140.57863895252925
_cell_formula_units_Z  2
loop_
  _symmetry_equiv_pos_site_id
 _symmetry_equiv_pos_as_xyz
 1  'x, y, z'
loop_
 _atom_site_type_symbol
 _atom_site_label
 _atom_site_symmetry_multiplicity
 _atom_site_fract_x
 _atom_site_fract_y
 _atom_site_fract_z
 _atom_site_fract_occupancy
 Ni  Ni1  1  0.00000  0.00000  0.00000  1
 Ni  Ni2  1  0.00000  0.00000  0.50000  1
 O  O1  1  0.22996  0.27009  0.75000  1
 O  O2  1  0.77004  0.72991  0.25000  1
 O  O3  1  0.27008  0.22996  0.25000  1
 O  O4  1  0.72991  0.77004  0.75000  1
 O  O5  1  0.24491  0.75509  0.97486  1
 O  O6  1  0.75508  0.24491  0.47486  1
 O  O7  1  0.24491  0.75509  0.52514  1
 O  O8  1  0.75508  0.24491  0.02514  1
 Se  Se1  1  0.35162  0.64838  0.75000  1
 Se  Se2  1  0.64838  0.35162  0.25000  1
