CIF file written using JARVIS-Tools package.
data_Na3Li3N2
_symmetry_space_group_name_H-M  'Pm'
_cell_length_a       3.81496
_cell_length_b       4.23485
_cell_length_c       7.2372
_cell_angle_alpha    90
_cell_angle_beta     90.3556
_cell_angle_gamma    90

_symmetry_Int_Tables_number  6
_chemical_formula_structural  Na3Li3N2
_chemical_formula_sum  Na3Li3N2
_cell_volume  116.92037500627055
_cell_formula_units_Z  1
loop_
  _symmetry_equiv_pos_site_id
 _symmetry_equiv_pos_as_xyz
 1  'x, y, z'
loop_
 _atom_site_type_symbol
 _atom_site_label
 _atom_site_symmetry_multiplicity
 _atom_site_fract_x
 _atom_site_fract_y
 _atom_site_fract_z
 _atom_site_fract_occupancy
 Li  Li1  1  0.98808  0.00000  0.27628  1
 Li  Li2  1  0.45206  0.00000  0.97465  1
 Li  Li3  1  0.01978  0.50000  0.83073  1
 N  N1  1  0.48435  0.00000  0.28535  1
 N  N2  1  0.51734  0.50000  0.81548  1
 Na  Na1  1  0.33464  0.50000  0.47795  1
 Na  Na2  1  0.65373  0.00000  0.63613  1
 Na  Na3  1  0.59202  0.50000  0.14243  1
