CIF file written using JARVIS-Tools package.
data_MoSeCl7O
_symmetry_space_group_name_H-M  'P-1'
_cell_length_a       7.63292
_cell_length_b       7.95814
_cell_length_c       9.49891
_cell_angle_alpha    91.4764
_cell_angle_beta     112.443
_cell_angle_gamma    107.774

_symmetry_Int_Tables_number  2
_chemical_formula_structural  MoSeCl7O
_chemical_formula_sum  Mo2Se2Cl4O2
_cell_volume  501.1615526804747
_cell_formula_units_Z  2
loop_
  _symmetry_equiv_pos_site_id
 _symmetry_equiv_pos_as_xyz
 1  'x, y, z'
loop_
 _atom_site_type_symbol
 _atom_site_label
 _atom_site_symmetry_multiplicity
 _atom_site_fract_x
 _atom_site_fract_y
 _atom_site_fract_z
 _atom_site_fract_occupancy
 Cl  Cl1  1  0.20522  0.15372  0.80784  1
 Cl  Cl2  1  0.82950  0.37006  0.70045  1
 Cl  Cl3  1  0.79478  0.84628  0.19216  1
 Cl  Cl4  1  0.10273  0.22976  0.13552  1
 Cl  Cl5  1  0.17050  0.62994  0.29955  1
 Cl  Cl6  1  0.59962  0.47768  0.36640  1
 Cl  Cl7  1  0.89727  0.77024  0.86448  1
 Cl  Cl8  1  0.71162  0.89000  0.52853  1
 Cl  Cl9  1  0.31596  0.60723  0.97679  1
 Cl  Cl10  1  0.40038  0.52232  0.63360  1
 Cl  Cl11  1  0.43346  0.01249  0.17335  1
 Cl  Cl12  1  0.28838  0.11000  0.47147  1
 Cl  Cl13  1  0.56654  -0.01249  0.82665  1
 Cl  Cl14  1  0.68404  0.39277  0.02321  1
 Mo  Mo1  1  0.16714  0.34767  0.38265  1
 Mo  Mo2  1  0.83286  0.65233  0.61735  1
 O  O1  1  0.94627  0.28099  0.39495  1
 O  O2  1  0.05373  0.71901  0.60505  1
 Se  Se1  1  0.49667  0.23579  0.78758  1
 Se  Se2  1  0.50333  0.76421  0.21242  1
