CIF file written using JARVIS-Tools package.
data_IrCl4F6
_symmetry_space_group_name_H-M  'P2_1/c'
_cell_length_a       5.09906
_cell_length_b       10.826
_cell_length_c       7.33728
_cell_angle_alpha    90
_cell_angle_beta     94.874
_cell_angle_gamma    90

_symmetry_Int_Tables_number  14
_chemical_formula_structural  IrCl4F6
_chemical_formula_sum  Ir2Cl8F2
_cell_volume  403.5687681148097
_cell_formula_units_Z  2
loop_
  _symmetry_equiv_pos_site_id
 _symmetry_equiv_pos_as_xyz
 1  'x, y, z'
loop_
 _atom_site_type_symbol
 _atom_site_label
 _atom_site_symmetry_multiplicity
 _atom_site_fract_x
 _atom_site_fract_y
 _atom_site_fract_z
 _atom_site_fract_occupancy
 Cl  Cl1  1  0.23719  0.86143  0.03775  1
 Cl  Cl2  1  0.76281  0.36143  0.46225  1
 Cl  Cl3  1  0.76281  0.13857  0.96225  1
 Cl  Cl4  1  0.23719  0.63857  0.53775  1
 Cl  Cl5  1  0.53189  0.84793  0.87962  1
 Cl  Cl6  1  0.46811  0.34793  0.62038  1
 Cl  Cl7  1  0.46811  0.15207  0.12038  1
 Cl  Cl8  1  0.53189  0.65207  0.37962  1
 F  F1  1  0.31473  0.58489  0.96168  1
 F  F2  1  0.68527  0.41511  0.03832  1
 F  F3  1  0.84217  0.57491  0.78257  1
 F  F4  1  0.84217  0.92509  0.28257  1
 F  F5  1  0.15783  0.42509  0.21743  1
 F  F6  1  0.15783  0.07491  0.71743  1
 F  F7  1  0.31473  0.91511  0.46168  1
 F  F8  1  0.10514  0.13778  0.36136  1
 F  F9  1  0.89486  0.63778  0.13864  1
 F  F10  1  0.68527  0.08489  0.53832  1
 F  F11  1  0.89486  0.86222  0.63864  1
 F  F12  1  0.10514  0.36222  0.86136  1
 Ir  Ir1  1  0.00000  0.50000  0.00000  1
 Ir  Ir2  1  0.00000  0.00000  0.50000  1
