CIF file written using JARVIS-Tools package.
data_NaAg2Sn
_symmetry_space_group_name_H-M  'Immm'
_cell_length_a       11.8322
_cell_length_b       6.64483
_cell_length_c       6.64483
_cell_angle_alpha    25.7058
_cell_angle_beta     27.0848
_cell_angle_gamma    27.0847

_symmetry_Int_Tables_number  71
_chemical_formula_structural  NaAg2Sn
_chemical_formula_sum  NaAg2Sn
_cell_volume  92.3373214848646
_cell_formula_units_Z  1
loop_
  _symmetry_equiv_pos_site_id
 _symmetry_equiv_pos_as_xyz
 1  'x, y, z'
loop_
 _atom_site_type_symbol
 _atom_site_label
 _atom_site_symmetry_multiplicity
 _atom_site_fract_x
 _atom_site_fract_y
 _atom_site_fract_z
 _atom_site_fract_occupancy
 Ag  Ag1  1  0.74080  0.00000  0.00000  1
 Ag  Ag2  1  0.25920  -0.00000  -0.00000  1
 Na  Na1  1  0.00000  0.00000  0.00000  1
 Sn  Sn1  1  0.50000  0.00000  -0.00000  1
