CIF file written using JARVIS-Tools package.
data_Mn5O9F
_symmetry_space_group_name_H-M  'P1'
_cell_length_a       4.74859
_cell_length_b       5.03437
_cell_length_c       7.66606
_cell_angle_alpha    109.316
_cell_angle_beta     76.7032
_cell_angle_gamma    80.1505

_symmetry_Int_Tables_number  1
_chemical_formula_structural  Mn5O9F
_chemical_formula_sum  Mn5O9F
_cell_volume  162.10542860441618
_cell_formula_units_Z  1
loop_
  _symmetry_equiv_pos_site_id
 _symmetry_equiv_pos_as_xyz
 1  'x, y, z'
loop_
 _atom_site_type_symbol
 _atom_site_label
 _atom_site_symmetry_multiplicity
 _atom_site_fract_x
 _atom_site_fract_y
 _atom_site_fract_z
 _atom_site_fract_occupancy
 F  F1  1  0.23825  -0.00592  0.75301  1
 Mn  Mn1  1  0.00430  0.19723  0.40168  1
 Mn  Mn2  1  0.98655  0.00144  0.01106  1
 Mn  Mn3  1  0.00252  0.59230  0.19637  1
 Mn  Mn4  1  0.99438  0.79194  0.58978  1
 Mn  Mn5  1  0.98512  0.42039  0.80381  1
 O  O1  1  0.21207  0.20843  0.15722  1
 O  O2  1  0.21285  0.80991  0.35692  1
 O  O3  1  0.20927  0.41297  0.55621  1
 O  O4  1  0.20904  0.61407  0.95991  1
 O  O5  1  0.79228  0.38543  0.04024  1
 O  O6  1  0.78376  -0.01025  0.24258  1
 O  O7  1  0.78493  0.58962  0.44325  1
 O  O8  1  0.79453  0.18657  0.64254  1
 O  O9  1  0.78731  0.80609  0.84214  1
