CIF file written using JARVIS-Tools package.
data_TiCl3
_symmetry_space_group_name_H-M  'P-31c'
_cell_length_a       6.00276
_cell_length_b       6.00276
_cell_length_c       11.6708
_cell_angle_alpha    90
_cell_angle_beta     90
_cell_angle_gamma    120

_symmetry_Int_Tables_number  163
_chemical_formula_structural  TiCl3
_chemical_formula_sum  Ti4Cl2
_cell_volume  364.1955705079217
_cell_formula_units_Z  4
loop_
  _symmetry_equiv_pos_site_id
 _symmetry_equiv_pos_as_xyz
 1  'x, y, z'
loop_
 _atom_site_type_symbol
 _atom_site_label
 _atom_site_symmetry_multiplicity
 _atom_site_fract_x
 _atom_site_fract_y
 _atom_site_fract_z
 _atom_site_fract_occupancy
 Cl  Cl1  1  0.66649  0.67516  0.12986  1
 Cl  Cl2  1  0.00867  0.33351  0.12986  1
 Cl  Cl3  1  0.32484  0.33351  0.37014  1
 Cl  Cl4  1  0.33351  0.00867  0.62986  1
 Cl  Cl5  1  0.32484  -0.00867  0.12986  1
 Cl  Cl6  1  0.33351  0.32484  0.87014  1
 Cl  Cl7  1  0.67516  0.00867  0.87014  1
 Cl  Cl8  1  -0.00867  0.66649  0.87014  1
 Cl  Cl9  1  -0.00867  0.32484  0.62986  1
 Cl  Cl10  1  0.66649  -0.00867  0.37014  1
 Cl  Cl11  1  0.67516  0.66649  0.62986  1
 Cl  Cl12  1  0.00867  0.67516  0.37014  1
 Ti  Ti1  1  0.00000  0.00000  0.75000  1
 Ti  Ti2  1  0.66667  0.33333  0.75000  1
 Ti  Ti3  1  0.00000  0.00000  0.25000  1
 Ti  Ti4  1  0.33333  0.66667  0.25000  1
