CIF file written using JARVIS-Tools package.
data_HfCo
_symmetry_space_group_name_H-M  'Cmcm'
_cell_length_a       3.23707
_cell_length_b       4.10026
_cell_length_c       5.00101
_cell_angle_alpha    90
_cell_angle_beta     108.883
_cell_angle_gamma    90

_symmetry_Int_Tables_number  63
_chemical_formula_structural  HfCo
_chemical_formula_sum  Hf2Co2
_cell_volume  62.80506717659746
_cell_formula_units_Z  2
loop_
  _symmetry_equiv_pos_site_id
 _symmetry_equiv_pos_as_xyz
 1  'x, y, z'
loop_
 _atom_site_type_symbol
 _atom_site_label
 _atom_site_symmetry_multiplicity
 _atom_site_fract_x
 _atom_site_fract_y
 _atom_site_fract_z
 _atom_site_fract_occupancy
 Co  Co1  1  0.58528  0.75000  0.17056  1
 Co  Co2  1  0.41472  0.25000  0.82944  1
 Hf  Hf1  1  0.85950  0.75000  0.71900  1
 Hf  Hf2  1  0.14050  0.25000  0.28100  1
