CIF file written using JARVIS-Tools package.
data_Al2TcPd
_symmetry_space_group_name_H-M  'Immm'
_cell_length_a       9.99705
_cell_length_b       5.73076
_cell_length_c       5.73076
_cell_angle_alpha    50.8711
_cell_angle_beta     29.2814
_cell_angle_gamma    29.2815

_symmetry_Int_Tables_number  71
_chemical_formula_structural  Al2TcPd
_chemical_formula_sum  Al2TcPd
_cell_volume  65.99137123583687
_cell_formula_units_Z  1
loop_
  _symmetry_equiv_pos_site_id
 _symmetry_equiv_pos_as_xyz
 1  'x, y, z'
loop_
 _atom_site_type_symbol
 _atom_site_label
 _atom_site_symmetry_multiplicity
 _atom_site_fract_x
 _atom_site_fract_y
 _atom_site_fract_z
 _atom_site_fract_occupancy
 Al  Al1  1  0.74370  -0.00000  -0.00000  1
 Al  Al2  1  0.25630  0.00000  0.00000  1
 Pd  Pd1  1  0.50000  -0.00000  -0.00000  1
 Tc  Tc1  1  0.00000  0.00000  0.00000  1
