CIF file written using JARVIS-Tools package.
data_K3AlTe3
_symmetry_space_group_name_H-M  'P2_1/c'
_cell_length_a       8.61695
_cell_length_b       9.07528
_cell_length_c       13.6282
_cell_angle_alpha    90
_cell_angle_beta     90
_cell_angle_gamma    101.471

_symmetry_Int_Tables_number  14
_chemical_formula_structural  K3AlTe3
_chemical_formula_sum  K2Al4Te2
_cell_volume  1044.458435927379
_cell_formula_units_Z  4
loop_
  _symmetry_equiv_pos_site_id
 _symmetry_equiv_pos_as_xyz
 1  'x, y, z'
loop_
 _atom_site_type_symbol
 _atom_site_label
 _atom_site_symmetry_multiplicity
 _atom_site_fract_x
 _atom_site_fract_y
 _atom_site_fract_z
 _atom_site_fract_occupancy
 Al  Al1  1  0.40035  0.33611  0.56454  1
 Al  Al2  1  0.09965  0.16389  0.06454  1
 Al  Al3  1  0.59965  0.66389  0.43546  1
 Al  Al4  1  0.90035  0.83611  0.93546  1
 K  K1  1  0.65746  0.02360  0.11610  1
 K  K2  1  0.84254  0.47640  0.61610  1
 K  K3  1  0.34254  0.97640  0.88390  1
 K  K4  1  0.15746  0.52360  0.38390  1
 K  K5  1  0.73388  0.39629  0.90470  1
 K  K6  1  0.70696  0.58323  0.18402  1
 K  K7  1  0.20696  0.08323  0.31598  1
 K  K8  1  0.79304  0.91677  0.68402  1
 K  K9  1  0.76612  0.10371  0.40470  1
 K  K10  1  0.23388  0.89629  0.59530  1
 K  K11  1  0.29304  0.41677  0.81598  1
 K  K12  1  0.26612  0.60371  0.09530  1
 Te  Te1  1  0.90386  0.76854  0.44228  1
 Te  Te2  1  0.95730  0.31665  0.18700  1
 Te  Te3  1  0.54270  0.18335  0.68700  1
 Te  Te4  1  0.04270  0.68335  0.81300  1
 Te  Te5  1  0.45730  0.81665  0.31300  1
 Te  Te6  1  0.03226  0.86853  0.11370  1
 Te  Te7  1  0.53226  0.36853  0.38630  1
 Te  Te8  1  0.46774  0.63147  0.61370  1
 Te  Te9  1  0.09614  0.23146  0.55772  1
 Te  Te10  1  0.59614  0.73146  0.94228  1
 Te  Te11  1  0.96774  0.13147  0.88630  1
 Te  Te12  1  0.40386  0.26854  0.05772  1
