CIF file written using JARVIS-Tools package.
data_VF4
_symmetry_space_group_name_H-M  'R-3'
_cell_length_a       7.47363
_cell_length_b       7.47404
_cell_length_c       7.47519
_cell_angle_alpha    96.606
_cell_angle_beta     96.6034
_cell_angle_gamma    96.6054

_symmetry_Int_Tables_number  148
_chemical_formula_structural  VF4
_chemical_formula_sum  V6F24
_cell_volume  408.53187068875127
_cell_formula_units_Z  6
loop_
  _symmetry_equiv_pos_site_id
 _symmetry_equiv_pos_as_xyz
 1  'x, y, z'
loop_
 _atom_site_type_symbol
 _atom_site_label
 _atom_site_symmetry_multiplicity
 _atom_site_fract_x
 _atom_site_fract_y
 _atom_site_fract_z
 _atom_site_fract_occupancy
 F  F1  1  0.95286  0.68730  0.76100  1
 F  F2  1  0.10383  0.70890  0.46837  1
 F  F3  1  0.03421  0.64363  0.09132  1
 F  F4  1  0.04714  0.31270  0.23900  1
 F  F5  1  0.09136  0.03422  0.64361  1
 F  F6  1  0.35637  0.90865  0.96580  1
 F  F7  1  0.29112  0.53159  0.89618  1
 F  F8  1  0.26576  0.33711  0.55233  1
 F  F9  1  0.23899  0.04712  0.31267  1
 F  F10  1  0.96579  0.35637  0.90868  1
 F  F11  1  0.33712  0.55235  0.26572  1
 F  F12  1  0.44762  0.73425  0.66292  1
 F  F13  1  0.46837  0.10384  0.70891  1
 F  F14  1  0.73424  0.66289  0.44767  1
 F  F15  1  0.89617  0.29110  0.53163  1
 F  F16  1  0.90864  0.96578  0.35640  1
 F  F17  1  0.53163  0.89616  0.29109  1
 F  F18  1  0.70888  0.46841  0.10382  1
 F  F19  1  0.64363  0.09135  0.03420  1
 F  F20  1  0.76102  0.95288  0.68733  1
 F  F21  1  0.55238  0.26575  0.33708  1
 F  F22  1  0.66288  0.44765  0.73428  1
 F  F23  1  0.68731  0.76104  0.95286  1
 F  F24  1  0.31269  0.23895  0.04713  1
 V  V1  1  0.92461  0.80874  0.55032  1
 V  V2  1  0.80873  0.55032  0.92461  1
 V  V3  1  0.44972  0.07538  0.19125  1
 V  V4  1  0.55028  0.92462  0.80875  1
 V  V5  1  0.19126  0.44968  0.07539  1
 V  V6  1  0.07539  0.19126  0.44968  1
