CIF file written using JARVIS-Tools package.
data_Y2TlCu
_symmetry_space_group_name_H-M  'Immm'
_cell_length_a       11.4495
_cell_length_b       12.6429
_cell_length_c       12.6429
_cell_angle_alpha    52.6976
_cell_angle_beta     63.0764
_cell_angle_gamma    63.0764

_symmetry_Int_Tables_number  71
_chemical_formula_structural  Y2TlCu
_chemical_formula_sum  Y2TlCu
_cell_volume  1256.2518706544704
_cell_formula_units_Z  1
loop_
  _symmetry_equiv_pos_site_id
 _symmetry_equiv_pos_as_xyz
 1  'x, y, z'
loop_
 _atom_site_type_symbol
 _atom_site_label
 _atom_site_symmetry_multiplicity
 _atom_site_fract_x
 _atom_site_fract_y
 _atom_site_fract_z
 _atom_site_fract_occupancy
 Cu  Cu1  1  0.00000  0.00000  0.00000  1
 Tl  Tl1  1  0.50000  -0.00000  0.00000  1
 Y  Y1  1  0.75951  -0.00000  -0.00000  1
 Y  Y2  1  0.24049  0.00000  0.00000  1
