CIF file written using JARVIS-Tools package.
data_NbCrN
_symmetry_space_group_name_H-M  'P4/nmm'
_cell_length_a       4.3076
_cell_length_b       4.3076
_cell_length_c       7.37983
_cell_angle_alpha    90
_cell_angle_beta     90
_cell_angle_gamma    90

_symmetry_Int_Tables_number  129
_chemical_formula_structural  NbCrN
_chemical_formula_sum  Nb4Cr4N4
_cell_volume  136.93569230252416
_cell_formula_units_Z  4
loop_
  _symmetry_equiv_pos_site_id
 _symmetry_equiv_pos_as_xyz
 1  'x, y, z'
loop_
 _atom_site_type_symbol
 _atom_site_label
 _atom_site_symmetry_multiplicity
 _atom_site_fract_x
 _atom_site_fract_y
 _atom_site_fract_z
 _atom_site_fract_occupancy
 Cr  Cr1  1  0.00000  0.00000  0.24223  1
 Cr  Cr2  1  0.50000  0.50000  0.24223  1
 Cr  Cr3  1  0.00000  0.50000  0.41111  1
 Cr  Cr4  1  0.50000  0.00000  0.41111  1
 N  N1  1  0.00000  0.00000  0.96651  1
 N  N2  1  0.50000  0.50000  0.96651  1
 N  N3  1  0.00000  0.50000  0.68682  1
 N  N4  1  0.50000  0.00000  0.68682  1
 Nb  Nb1  1  0.00000  0.50000  0.00421  1
 Nb  Nb2  1  0.50000  0.00000  0.00421  1
 Nb  Nb3  1  0.00000  0.00000  0.64912  1
 Nb  Nb4  1  0.50000  0.50000  0.64912  1
