CIF file written using JARVIS-Tools package.
data_Tl2PtC4N4
_symmetry_space_group_name_H-M  'P2_1/c'
_cell_length_a       6.34019
_cell_length_b       7.30508
_cell_length_c       9.56816
_cell_angle_alpha    90
_cell_angle_beta     105.196
_cell_angle_gamma    90

_symmetry_Int_Tables_number  14
_chemical_formula_structural  Tl2PtC4N4
_chemical_formula_sum  Tl4Pt2C8N8
_cell_volume  427.6612505401817
_cell_formula_units_Z  2
loop_
  _symmetry_equiv_pos_site_id
 _symmetry_equiv_pos_as_xyz
 1  'x, y, z'
loop_
 _atom_site_type_symbol
 _atom_site_label
 _atom_site_symmetry_multiplicity
 _atom_site_fract_x
 _atom_site_fract_y
 _atom_site_fract_z
 _atom_site_fract_occupancy
 C  C1  1  0.80428  0.49999  0.79915  1
 C  C2  1  0.19572  0.50001  0.20085  1
 C  C3  1  0.70874  0.16225  0.43569  1
 C  C4  1  0.20874  0.33775  0.93569  1
 C  C5  1  0.30428  0.00001  0.29915  1
 C  C6  1  0.69572  -0.00001  0.70085  1
 C  C7  1  0.79126  0.66225  0.06431  1
 C  C8  1  0.29126  0.83775  0.56431  1
 N  N1  1  0.18987  0.99961  0.18118  1
 N  N2  1  0.82879  0.25865  0.39552  1
 N  N3  1  0.31013  0.49961  0.31882  1
 N  N4  1  0.67121  0.75865  0.10448  1
 N  N5  1  0.81013  0.00039  0.81882  1
 N  N6  1  0.32879  0.24135  0.89552  1
 N  N7  1  0.68987  0.50039  0.68118  1
 N  N8  1  0.17121  0.74135  0.60448  1
 Pt  Pt1  1  0.00000  0.50000  0.00000  1
 Pt  Pt2  1  0.50000  0.00000  0.50000  1
 Tl  Tl1  1  0.23184  0.85028  0.91772  1
 Tl  Tl2  1  0.26816  0.35028  0.58228  1
 Tl  Tl3  1  0.76816  0.14972  0.08228  1
 Tl  Tl4  1  0.73184  0.64972  0.41772  1
