CIF file written using JARVIS-Tools package.
data_Li2ThN2
_symmetry_space_group_name_H-M  'P-3'
_cell_length_a       6.42058
_cell_length_b       6.42058
_cell_length_c       5.49696
_cell_angle_alpha    90
_cell_angle_beta     90
_cell_angle_gamma    120

_symmetry_Int_Tables_number  147
_chemical_formula_structural  Li2ThN2
_chemical_formula_sum  Li6Th3N6
_cell_volume  196.24684418015187
_cell_formula_units_Z  3
loop_
  _symmetry_equiv_pos_site_id
 _symmetry_equiv_pos_as_xyz
 1  'x, y, z'
loop_
 _atom_site_type_symbol
 _atom_site_label
 _atom_site_symmetry_multiplicity
 _atom_site_fract_x
 _atom_site_fract_y
 _atom_site_fract_z
 _atom_site_fract_occupancy
 Li  Li1  1  0.31013  0.36904  0.41212  1
 Li  Li2  1  0.05891  0.68987  0.41212  1
 Li  Li3  1  0.63096  0.94109  0.41212  1
 Li  Li4  1  0.36904  0.05891  0.58788  1
 Li  Li5  1  0.68987  0.63096  0.58788  1
 Li  Li6  1  0.94109  0.31013  0.58788  1
 N  N1  1  0.67003  0.01304  0.77019  1
 N  N2  1  0.98696  0.65700  0.77019  1
 N  N3  1  0.34300  0.32997  0.77019  1
 N  N4  1  0.32997  0.98696  0.22981  1
 N  N5  1  0.65700  0.67003  0.22981  1
 N  N6  1  0.01304  0.34300  0.22981  1
 Th  Th1  1  0.66667  0.33333  0.02970  1
 Th  Th2  1  0.33333  0.66667  0.97030  1
 Th  Th3  1  0.00000  0.00000  0.00000  1
