CIF file written using JARVIS-Tools package.
data_Al4CN3O
_symmetry_space_group_name_H-M  'Cmc2_1'
_cell_length_a       5.37331
_cell_length_b       5.37331
_cell_length_c       8.98302
_cell_angle_alpha    90
_cell_angle_beta     90
_cell_angle_gamma    111.05

_symmetry_Int_Tables_number  36
_chemical_formula_structural  Al4CN3O
_chemical_formula_sum  Al8C2N6O2
_cell_volume  242.05279714189712
_cell_formula_units_Z  2
loop_
  _symmetry_equiv_pos_site_id
 _symmetry_equiv_pos_as_xyz
 1  'x, y, z'
loop_
 _atom_site_type_symbol
 _atom_site_label
 _atom_site_symmetry_multiplicity
 _atom_site_fract_x
 _atom_site_fract_y
 _atom_site_fract_z
 _atom_site_fract_occupancy
 Al  Al1  1  0.59462  0.40538  0.59242  1
 Al  Al2  1  0.95785  0.04215  0.67559  1
 Al  Al3  1  0.04215  0.95785  0.17559  1
 Al  Al4  1  0.54202  0.89944  0.39162  1
 Al  Al5  1  0.10056  0.45798  0.39162  1
 Al  Al6  1  0.45798  0.10056  0.89162  1
 Al  Al7  1  0.89944  0.54202  0.89162  1
 Al  Al8  1  0.40538  0.59462  0.09242  1
 C  C1  1  0.80463  0.19537  0.50430  1
 C  C2  1  0.19537  0.80463  0.00430  1
 N  N1  1  0.82550  0.17450  0.83920  1
 N  N2  1  0.83607  0.67327  0.70637  1
 N  N3  1  0.17450  0.82550  0.33920  1
 N  N4  1  0.32673  0.16393  0.70637  1
 N  N5  1  0.67327  0.83607  0.20637  1
 N  N6  1  0.16393  0.32673  0.20637  1
 O  O1  1  0.56869  0.43131  0.97803  1
 O  O2  1  0.43131  0.56869  0.47803  1
