CIF file written using JARVIS-Tools package.
data_NpGa2
_symmetry_space_group_name_H-M  'P6/mmm'
_cell_length_a       4.78606
_cell_length_b       4.78606
_cell_length_c       2.89006
_cell_angle_alpha    90
_cell_angle_beta     90
_cell_angle_gamma    120

_symmetry_Int_Tables_number  191
_chemical_formula_structural  NpGa2
_chemical_formula_sum  NpGa2
_cell_volume  57.33154123389759
_cell_formula_units_Z  1
loop_
  _symmetry_equiv_pos_site_id
 _symmetry_equiv_pos_as_xyz
 1  'x, y, z'
loop_
 _atom_site_type_symbol
 _atom_site_label
 _atom_site_symmetry_multiplicity
 _atom_site_fract_x
 _atom_site_fract_y
 _atom_site_fract_z
 _atom_site_fract_occupancy
 Ga  Ga1  1  0.33333  0.66667  0.50000  1
 Ga  Ga2  1  0.66667  0.33333  0.50000  1
 Np  Np1  1  0.00000  0.00000  0.00000  1
