CIF file written using JARVIS-Tools package.
data_Ca2SnAu
_symmetry_space_group_name_H-M  'I4/mmm'
_cell_length_a       12.8928
_cell_length_b       9.01966
_cell_length_c       9.01967
_cell_angle_alpha    33.1945
_cell_angle_beta     19.4695
_cell_angle_gamma    19.4698

_symmetry_Int_Tables_number  139
_chemical_formula_structural  Ca2SnAu
_chemical_formula_sum  Ca2SnAu
_cell_volume  102.9214251860477
_cell_formula_units_Z  1
loop_
  _symmetry_equiv_pos_site_id
 _symmetry_equiv_pos_as_xyz
 1  'x, y, z'
loop_
 _atom_site_type_symbol
 _atom_site_label
 _atom_site_symmetry_multiplicity
 _atom_site_fract_x
 _atom_site_fract_y
 _atom_site_fract_z
 _atom_site_fract_occupancy
 Au  Au1  1  0.50000  -0.00000  0.00000  1
 Ca  Ca1  1  0.74997  0.00001  0.00001  1
 Ca  Ca2  1  0.25003  -0.00001  -0.00001  1
 Sn  Sn1  1  0.00000  -0.00000  -0.00000  1
