CIF file written using JARVIS-Tools package.
data_AgGeO3
_symmetry_space_group_name_H-M  'Pmma'
_cell_length_a       5.43939
_cell_length_b       7.67595
_cell_length_c       3.19391
_cell_angle_alpha    89.9978
_cell_angle_beta     90.0005
_cell_angle_gamma    89.9919

_symmetry_Int_Tables_number  51
_chemical_formula_structural  AgGeO3
_chemical_formula_sum  Ag2Ge2O6
_cell_volume  133.35369129727084
_cell_formula_units_Z  2
loop_
  _symmetry_equiv_pos_site_id
 _symmetry_equiv_pos_as_xyz
 1  'x, y, z'
loop_
 _atom_site_type_symbol
 _atom_site_label
 _atom_site_symmetry_multiplicity
 _atom_site_fract_x
 _atom_site_fract_y
 _atom_site_fract_z
 _atom_site_fract_occupancy
 Ag  Ag1  1  0.99572  0.00179  0.98690  1
 Ag  Ag2  1  0.99599  0.50180  0.98690  1
 Ge  Ge1  1  0.43480  0.75177  0.48689  1
 Ge  Ge2  1  0.55692  0.25198  0.48690  1
 O  O1  1  0.23856  0.56340  0.48690  1
 O  O2  1  0.23807  0.93989  0.48689  1
 O  O3  1  0.39253  0.25184  0.98690  1
 O  O4  1  0.59919  0.75189  0.98689  1
 O  O5  1  0.75344  0.44019  0.48689  1
 O  O6  1  0.75337  0.06369  0.48691  1
