CIF file written using JARVIS-Tools package.
data_TiSi
_symmetry_space_group_name_H-M  'Cmmm'
_cell_length_a       3.64269
_cell_length_b       4.74156
_cell_length_c       4.74156
_cell_angle_alpha    53.1277
_cell_angle_beta     67.4106
_cell_angle_gamma    67.4106

_symmetry_Int_Tables_number  65
_chemical_formula_structural  TiSi
_chemical_formula_sum  Ti2Si2
_cell_volume  59.16573639430166
_cell_formula_units_Z  2
loop_
  _symmetry_equiv_pos_site_id
 _symmetry_equiv_pos_as_xyz
 1  'x, y, z'
loop_
 _atom_site_type_symbol
 _atom_site_label
 _atom_site_symmetry_multiplicity
 _atom_site_fract_x
 _atom_site_fract_y
 _atom_site_fract_z
 _atom_site_fract_occupancy
 Si  Si1  1  0.74999  0.80074  0.69928  1
 Si  Si2  1  0.25001  0.30072  0.19926  1
 Ti  Ti1  1  -0.00000  0.05077  0.94923  1
 Ti  Ti2  1  0.50000  0.55077  0.44923  1
