CIF file written using JARVIS-Tools package.
data_Ba3Ho2Cu2PtO10
_symmetry_space_group_name_H-M  'C2/m'
_cell_length_a       5.84655
_cell_length_b       6.92791
_cell_length_c       7.44572
_cell_angle_alpha    104.386
_cell_angle_beta     90
_cell_angle_gamma    114.958

_symmetry_Int_Tables_number  12
_chemical_formula_structural  Ba3Ho2Cu2PtO10
_chemical_formula_sum  Ba3Ho2Cu2PtO0
_cell_volume  262.95422631354256
_cell_formula_units_Z  1
loop_
  _symmetry_equiv_pos_site_id
 _symmetry_equiv_pos_as_xyz
 1  'x, y, z'
loop_
 _atom_site_type_symbol
 _atom_site_label
 _atom_site_symmetry_multiplicity
 _atom_site_fract_x
 _atom_site_fract_y
 _atom_site_fract_z
 _atom_site_fract_occupancy
 Ba  Ba1  1  0.84687  0.69375  0.45892  1
 Ba  Ba2  1  0.00000  0.00000  0.00000  1
 Ba  Ba3  1  0.15313  0.30625  0.54108  1
 Cu  Cu1  1  0.58920  0.17841  0.19864  1
 Cu  Cu2  1  0.41080  0.82159  0.80136  1
 Ho  Ho1  1  0.31126  0.62253  0.12592  1
 Ho  Ho2  1  0.68874  0.37747  0.87408  1
 O  O1  1  0.73967  0.03803  0.71968  1
 O  O2  1  0.54468  0.63134  0.87362  1
 O  O3  1  0.33281  0.66562  0.44894  1
 O  O4  1  0.70164  0.96197  0.28032  1
 O  O5  1  0.66719  0.33438  0.55106  1
 O  O6  1  0.45532  0.36866  0.12638  1
 O  O7  1  0.29836  0.03803  0.71968  1
 O  O8  1  0.08666  0.63134  0.87362  1
 O  O9  1  0.91334  0.36866  0.12638  1
 O  O10  1  0.26033  0.96197  0.28032  1
 Pt  Pt1  1  0.50000  -0.00000  0.50000  1
