CIF file written using JARVIS-Tools package.
data_Li2DyPCO7
_symmetry_space_group_name_H-M  'P2_1/m'
_cell_length_a       9.55166
_cell_length_b       6.59365
_cell_length_c       4.69115
_cell_angle_alpha    90
_cell_angle_beta     82.0926
_cell_angle_gamma    90

_symmetry_Int_Tables_number  11
_chemical_formula_structural  Li2DyPCO7
_chemical_formula_sum  Li4Dy2P2C2O4
_cell_volume  292.641156483426
_cell_formula_units_Z  2
loop_
  _symmetry_equiv_pos_site_id
 _symmetry_equiv_pos_as_xyz
 1  'x, y, z'
loop_
 _atom_site_type_symbol
 _atom_site_label
 _atom_site_symmetry_multiplicity
 _atom_site_fract_x
 _atom_site_fract_y
 _atom_site_fract_z
 _atom_site_fract_occupancy
 C  C1  1  0.07469  0.75000  0.71849  1
 C  C2  1  0.92531  0.25000  0.28151  1
 Dy  Dy1  1  0.37380  0.75000  0.73557  1
 Dy  Dy2  1  0.62620  0.25000  0.26443  1
 Li  Li1  1  0.16305  0.99702  0.20921  1
 Li  Li2  1  0.16305  0.50298  0.20921  1
 Li  Li3  1  0.83695  0.49702  0.79079  1
 Li  Li4  1  0.83695  0.00298  0.79079  1
 O  O1  1  0.05505  0.25000  0.32043  1
 O  O2  1  0.88535  0.25000  0.02891  1
 O  O3  1  0.17702  0.75000  0.49775  1
 O  O4  1  0.30932  0.05913  0.88707  1
 O  O5  1  0.30932  0.44087  0.88707  1
 O  O6  1  0.11465  0.75000  0.97109  1
 O  O7  1  0.39220  0.25000  0.42417  1
 O  O8  1  0.69068  0.94087  0.11293  1
 O  O9  1  0.54548  0.25000  0.80038  1
 O  O10  1  0.69068  0.55913  0.11293  1
 O  O11  1  0.45452  0.75000  0.19962  1
 O  O12  1  0.82298  0.25000  0.50225  1
 O  O13  1  0.60780  0.75000  0.57583  1
 O  O14  1  0.94495  0.75000  0.67957  1
 P  P1  1  0.61449  0.75000  0.24366  1
 P  P2  1  0.38551  0.25000  0.75634  1
