CIF file written using JARVIS-Tools package.
data_Ta3N5
_symmetry_space_group_name_H-M  'Cmcm'
_cell_length_a       3.89807
_cell_length_b       5.52106
_cell_length_c       10.3582
_cell_angle_alpha    90
_cell_angle_beta     90
_cell_angle_gamma    110.672

_symmetry_Int_Tables_number  63
_chemical_formula_structural  Ta3N5
_chemical_formula_sum  Ta6N0
_cell_volume  208.57134594996836
_cell_formula_units_Z  2
loop_
  _symmetry_equiv_pos_site_id
 _symmetry_equiv_pos_as_xyz
 1  'x, y, z'
loop_
 _atom_site_type_symbol
 _atom_site_label
 _atom_site_symmetry_multiplicity
 _atom_site_fract_x
 _atom_site_fract_y
 _atom_site_fract_z
 _atom_site_fract_occupancy
 N  N1  1  0.95290  0.90580  0.88081  1
 N  N2  1  0.30835  0.61671  0.07382  1
 N  N3  1  0.69165  0.38329  0.92618  1
 N  N4  1  0.30835  0.61671  0.42618  1
 N  N5  1  0.76333  0.52665  0.25000  1
 N  N6  1  0.69165  0.38329  0.57382  1
 N  N7  1  0.95290  0.90580  0.61919  1
 N  N8  1  0.04710  0.09420  0.38081  1
 N  N9  1  0.23667  0.47335  0.75000  1
 N  N10  1  0.04710  0.09420  0.11919  1
 Ta  Ta1  1  0.80291  0.60582  0.75000  1
 Ta  Ta2  1  0.13320  0.26640  0.93984  1
 Ta  Ta3  1  0.86680  0.73360  0.06016  1
 Ta  Ta4  1  0.86680  0.73360  0.43984  1
 Ta  Ta5  1  0.19709  0.39418  0.25000  1
 Ta  Ta6  1  0.13320  0.26640  0.56016  1
