CIF file written using JARVIS-Tools package.
data_Mn2FeO6
_symmetry_space_group_name_H-M  'Cmce'
_cell_length_a       4.86107
_cell_length_b       4.86107
_cell_length_c       8.97685
_cell_angle_alpha    90
_cell_angle_beta     90
_cell_angle_gamma    120.175

_symmetry_Int_Tables_number  64
_chemical_formula_structural  Mn2FeO6
_chemical_formula_sum  Mn4Fe2O2
_cell_volume  183.378341818342
_cell_formula_units_Z  2
loop_
  _symmetry_equiv_pos_site_id
 _symmetry_equiv_pos_as_xyz
 1  'x, y, z'
loop_
 _atom_site_type_symbol
 _atom_site_label
 _atom_site_symmetry_multiplicity
 _atom_site_fract_x
 _atom_site_fract_y
 _atom_site_fract_z
 _atom_site_fract_occupancy
 Fe  Fe1  1  0.00000  0.00000  0.00000  1
 Fe  Fe2  1  0.50000  0.50000  0.50000  1
 Mn  Mn1  1  0.17171  0.82829  0.50000  1
 Mn  Mn2  1  0.32829  0.67171  0.00000  1
 Mn  Mn3  1  0.67171  0.32829  0.00000  1
 Mn  Mn4  1  0.82829  0.17171  0.50000  1
 O  O1  1  -0.00138  0.66675  0.10957  1
 O  O2  1  0.00138  0.33325  0.89043  1
 O  O3  1  0.83325  0.50138  0.60957  1
 O  O4  1  0.50138  0.83325  0.60957  1
 O  O5  1  0.16675  0.49862  0.39043  1
 O  O6  1  0.33325  0.00138  0.89043  1
 O  O7  1  0.66229  0.66229  0.89675  1
 O  O8  1  0.16229  0.16229  0.60325  1
 O  O9  1  0.83771  0.83771  0.39675  1
 O  O10  1  0.49862  0.16675  0.39043  1
 O  O11  1  0.33771  0.33771  0.10325  1
 O  O12  1  0.66675  -0.00138  0.10957  1
