CIF file written using JARVIS-Tools package.
data_Ag3SbS3
_symmetry_space_group_name_H-M  'R3c'
_cell_length_a       6.99319
_cell_length_b       6.99318
_cell_length_c       6.99319
_cell_angle_alpha    101.559
_cell_angle_beta     101.559
_cell_angle_gamma    101.559

_symmetry_Int_Tables_number  161
_chemical_formula_structural  Ag3SbS3
_chemical_formula_sum  Ag6Sb2S6
_cell_volume  317.7917008194253
_cell_formula_units_Z  2
loop_
  _symmetry_equiv_pos_site_id
 _symmetry_equiv_pos_as_xyz
 1  'x, y, z'
loop_
 _atom_site_type_symbol
 _atom_site_label
 _atom_site_symmetry_multiplicity
 _atom_site_fract_x
 _atom_site_fract_y
 _atom_site_fract_z
 _atom_site_fract_occupancy
 Ag  Ag1  1  0.42127  0.74949  0.93844  1
 Ag  Ag2  1  0.93844  0.42127  0.74949  1
 Ag  Ag3  1  0.92127  0.43844  0.24949  1
 Ag  Ag4  1  0.43844  0.24949  0.92127  1
 Ag  Ag5  1  0.74949  0.93844  0.42127  1
 Ag  Ag6  1  0.24949  0.92127  0.43844  1
 S  S1  1  0.09650  0.76314  0.74656  1
 S  S2  1  0.76314  0.74656  0.09650  1
 S  S3  1  0.26314  0.59650  0.24656  1
 S  S4  1  0.59650  0.24656  0.26314  1
 S  S5  1  0.74656  0.09650  0.76314  1
 S  S6  1  0.24656  0.26314  0.59650  1
 Sb  Sb1  1  0.51049  0.51049  0.51049  1
 Sb  Sb2  1  0.01049  0.01049  0.01049  1
