CIF file written using JARVIS-Tools package.
data_SrYPt2
_symmetry_space_group_name_H-M  'Immm'
_cell_length_a       11.01
_cell_length_b       6.34565
_cell_length_c       6.34565
_cell_angle_alpha    51.2784
_cell_angle_beta     29.8281
_cell_angle_gamma    29.8281

_symmetry_Int_Tables_number  71
_chemical_formula_structural  SrYPt2
_chemical_formula_sum  SrYPt2
_cell_volume  94.11693664109966
_cell_formula_units_Z  1
loop_
  _symmetry_equiv_pos_site_id
 _symmetry_equiv_pos_as_xyz
 1  'x, y, z'
loop_
 _atom_site_type_symbol
 _atom_site_label
 _atom_site_symmetry_multiplicity
 _atom_site_fract_x
 _atom_site_fract_y
 _atom_site_fract_z
 _atom_site_fract_occupancy
 Pt  Pt1  1  0.73849  0.00000  -0.00000  1
 Pt  Pt2  1  0.26151  -0.00000  0.00000  1
 Sr  Sr1  1  0.00000  0.00000  0.00000  1
 Y  Y1  1  0.50000  0.00000  -0.00000  1
