CIF file written using JARVIS-Tools package.
data_Ba2YAg3O8
_symmetry_space_group_name_H-M  'P4/mmm'
_cell_length_a       4.10357
_cell_length_b       4.10357
_cell_length_c       12.1591
_cell_angle_alpha    90
_cell_angle_beta     90
_cell_angle_gamma    90

_symmetry_Int_Tables_number  123
_chemical_formula_structural  Ba2YAg3O8
_chemical_formula_sum  Ba2YAg3O8
_cell_volume  204.75041025408473
_cell_formula_units_Z  1
loop_
  _symmetry_equiv_pos_site_id
 _symmetry_equiv_pos_as_xyz
 1  'x, y, z'
loop_
 _atom_site_type_symbol
 _atom_site_label
 _atom_site_symmetry_multiplicity
 _atom_site_fract_x
 _atom_site_fract_y
 _atom_site_fract_z
 _atom_site_fract_occupancy
 Ag  Ag1  1  0.00000  0.00000  0.35712  1
 Ag  Ag2  1  0.00000  0.00000  -0.00000  1
 Ag  Ag3  1  0.00000  0.00000  0.64288  1
 Ba  Ba1  1  0.50000  0.50000  0.16335  1
 Ba  Ba2  1  0.50000  0.50000  0.83663  1
 O  O1  1  0.00000  0.50000  0.38877  1
 O  O2  1  0.50000  0.00000  0.38877  1
 O  O3  1  0.50000  0.00000  0.99999  1
 O  O4  1  0.00000  0.00000  0.17009  1
 O  O5  1  0.00000  0.50000  0.61125  1
 O  O6  1  0.50000  0.00000  0.61125  1
 O  O7  1  0.00000  0.00000  0.82991  1
 O  O8  1  0.00000  0.50000  0.99999  1
 Y  Y1  1  0.50000  0.50000  0.50000  1
