CIF file written using JARVIS-Tools package.
data_LiFeF4
_symmetry_space_group_name_H-M  'I4_1/amd'
_cell_length_a       5.59968
_cell_length_b       5.59968
_cell_length_c       5.59968
_cell_angle_alpha    111.159
_cell_angle_beta     111.159
_cell_angle_gamma    106.146

_symmetry_Int_Tables_number  141
_chemical_formula_structural  LiFeF4
_chemical_formula_sum  Li2Fe2F8
_cell_volume  134.82699035047463
_cell_formula_units_Z  2
loop_
  _symmetry_equiv_pos_site_id
 _symmetry_equiv_pos_as_xyz
 1  'x, y, z'
loop_
 _atom_site_type_symbol
 _atom_site_label
 _atom_site_symmetry_multiplicity
 _atom_site_fract_x
 _atom_site_fract_y
 _atom_site_fract_z
 _atom_site_fract_occupancy
 F  F1  1  0.81415  0.35788  0.04373  1
 F  F2  1  0.22958  0.18585  0.04373  1
 F  F3  1  0.64212  0.18585  0.45627  1
 F  F4  1  0.81415  0.77042  0.45627  1
 F  F5  1  0.18585  0.22958  0.54373  1
 F  F6  1  0.77042  0.81415  0.95627  1
 F  F7  1  0.35788  0.81415  0.54373  1
 F  F8  1  0.18585  0.64212  0.95627  1
 Fe  Fe1  1  0.87500  0.12500  0.75000  1
 Fe  Fe2  1  0.12500  0.87500  0.25000  1
 Li  Li1  1  0.62500  0.37500  0.25000  1
 Li  Li2  1  0.37500  0.62500  0.75000  1
