CIF file written using JARVIS-Tools package.
data_CdCN2
_symmetry_space_group_name_H-M  'R3m'
_cell_length_a       5.35355
_cell_length_b       5.35355
_cell_length_c       5.35355
_cell_angle_alpha    39.2434
_cell_angle_beta     39.2434
_cell_angle_gamma    39.2434

_symmetry_Int_Tables_number  160
_chemical_formula_structural  CdCN2
_chemical_formula_sum  CdCN2
_cell_volume  55.248207712769734
_cell_formula_units_Z  1
loop_
  _symmetry_equiv_pos_site_id
 _symmetry_equiv_pos_as_xyz
 1  'x, y, z'
loop_
 _atom_site_type_symbol
 _atom_site_label
 _atom_site_symmetry_multiplicity
 _atom_site_fract_x
 _atom_site_fract_y
 _atom_site_fract_z
 _atom_site_fract_occupancy
 C  C1  1  0.58009  0.58009  0.58009  1
 Cd  Cd1  1  0.99647  0.99647  0.99647  1
 N  N1  1  0.41449  0.41449  0.41449  1
 N  N2  1  0.49795  0.49795  0.49795  1
