CIF file written using JARVIS-Tools package.
data_CdI2
_symmetry_space_group_name_H-M  'P-3m1'
_cell_length_a       4.28484
_cell_length_b       4.28484
_cell_length_c       27.5181
_cell_angle_alpha    90
_cell_angle_beta     90
_cell_angle_gamma    120

_symmetry_Int_Tables_number  164
_chemical_formula_structural  CdI2
_chemical_formula_sum  Cd4I8
_cell_volume  437.54147109162363
_cell_formula_units_Z  4
loop_
  _symmetry_equiv_pos_site_id
 _symmetry_equiv_pos_as_xyz
 1  'x, y, z'
loop_
 _atom_site_type_symbol
 _atom_site_label
 _atom_site_symmetry_multiplicity
 _atom_site_fract_x
 _atom_site_fract_y
 _atom_site_fract_z
 _atom_site_fract_occupancy
 Cd  Cd1  1  0.33333  0.66667  0.06250  1
 Cd  Cd2  1  0.00000  0.00000  0.81245  1
 Cd  Cd3  1  0.66667  0.33333  0.31255  1
 Cd  Cd4  1  0.33333  0.66667  0.56250  1
 I  I1  1  0.33333  0.66667  0.37556  1
 I  I2  1  0.00000  0.00000  0.49946  1
 I  I3  1  0.33333  0.66667  0.74944  1
 I  I4  1  0.66667  0.33333  0.62554  1
 I  I5  1  0.66667  0.33333  0.87551  1
 I  I6  1  0.00000  0.00000  -0.00053  1
 I  I7  1  0.00000  0.00000  0.24949  1
 I  I8  1  0.66667  0.33333  0.12553  1
