CIF file written using JARVIS-Tools package.
data_Hf2N2O
_symmetry_space_group_name_H-M  'P1'
_cell_length_a       5.40206
_cell_length_b       6.44963
_cell_length_c       6.98375
_cell_angle_alpha    76.7277
_cell_angle_beta     89.6752
_cell_angle_gamma    89.9742

_symmetry_Int_Tables_number  1
_chemical_formula_structural  Hf2N2O
_chemical_formula_sum  Hf8N8O4
_cell_volume  236.8200541362402
_cell_formula_units_Z  4
loop_
  _symmetry_equiv_pos_site_id
 _symmetry_equiv_pos_as_xyz
 1  'x, y, z'
loop_
 _atom_site_type_symbol
 _atom_site_label
 _atom_site_symmetry_multiplicity
 _atom_site_fract_x
 _atom_site_fract_y
 _atom_site_fract_z
 _atom_site_fract_occupancy
 Hf  Hf1  1  0.71225  0.87070  0.15112  1
 Hf  Hf2  1  0.70207  0.37107  0.15265  1
 Hf  Hf3  1  0.19762  0.32264  0.34669  1
 Hf  Hf4  1  0.21452  0.82180  0.34308  1
 Hf  Hf5  1  0.77005  0.50492  0.60998  1
 Hf  Hf6  1  0.76580  0.00808  0.60601  1
 Hf  Hf7  1  0.30998  0.69276  0.86777  1
 Hf  Hf8  1  0.27532  0.18492  0.89489  1
 N  N1  1  0.92471  0.07990  0.30800  1
 N  N2  1  0.42890  0.61631  0.17975  1
 N  N3  1  0.92590  0.58292  0.31226  1
 N  N4  1  0.42272  0.10847  0.19375  1
 N  N5  1  0.54863  0.95278  0.86501  1
 N  N6  1  0.04272  0.24789  0.63776  1
 N  N7  1  0.54602  0.43177  0.86685  1
 N  N8  1  0.52249  0.77400  0.52823  1
 O  O1  1  0.02506  0.74855  0.64477  1
 O  O2  1  0.05790  0.90146  -0.00142  1
 O  O3  1  0.55322  0.28844  0.49040  1
 O  O4  1  0.05411  0.41440  0.00243  1
