CIF file written using JARVIS-Tools package.
data_Li2CuPO4
_symmetry_space_group_name_H-M  'P2_1'
_cell_length_a       6.14608
_cell_length_b       4.94373
_cell_length_c       5.41295
_cell_angle_alpha    90
_cell_angle_beta     92.2767
_cell_angle_gamma    90

_symmetry_Int_Tables_number  4
_chemical_formula_structural  Li2CuPO4
_chemical_formula_sum  Li4Cu2P2O8
_cell_volume  164.34009462321956
_cell_formula_units_Z  2
loop_
  _symmetry_equiv_pos_site_id
 _symmetry_equiv_pos_as_xyz
 1  'x, y, z'
loop_
 _atom_site_type_symbol
 _atom_site_label
 _atom_site_symmetry_multiplicity
 _atom_site_fract_x
 _atom_site_fract_y
 _atom_site_fract_z
 _atom_site_fract_occupancy
 Cu  Cu1  1  0.49451  0.51653  0.12595  1
 Cu  Cu2  1  0.50549  0.01653  -0.12595  1
 Li  Li1  1  0.00382  0.99362  0.83429  1
 Li  Li2  1  0.25050  0.49435  0.65422  1
 Li  Li3  1  0.74950  0.99435  0.34578  1
 Li  Li4  1  0.99618  0.49362  0.16571  1
 O  O1  1  0.03622  0.09529  0.18749  1
 O  O2  1  0.23273  0.09445  0.61036  1
 O  O3  1  0.24123  0.67470  0.33372  1
 O  O4  1  0.45334  0.09541  0.22748  1
 O  O5  1  0.54666  0.59541  0.77252  1
 O  O6  1  0.75877  0.17470  0.66628  1
 O  O7  1  0.76727  0.59445  0.38964  1
 O  O8  1  0.96378  0.59529  0.81251  1
 P  P1  1  0.23836  0.98961  0.34026  1
 P  P2  1  0.76164  0.48961  0.65974  1
