CIF file written using JARVIS-Tools package.
data_Te2SO7
_symmetry_space_group_name_H-M  'Pmn2_1'
_cell_length_a       4.59492
_cell_length_b       6.951
_cell_length_c       8.99858
_cell_angle_alpha    90
_cell_angle_beta     90
_cell_angle_gamma    90

_symmetry_Int_Tables_number  31
_chemical_formula_structural  Te2SO7
_chemical_formula_sum  Te4S2O4
_cell_volume  287.40801965188723
_cell_formula_units_Z  2
loop_
  _symmetry_equiv_pos_site_id
 _symmetry_equiv_pos_as_xyz
 1  'x, y, z'
loop_
 _atom_site_type_symbol
 _atom_site_label
 _atom_site_symmetry_multiplicity
 _atom_site_fract_x
 _atom_site_fract_y
 _atom_site_fract_z
 _atom_site_fract_occupancy
 O  O1  1  0.73890  0.19128  0.00000  1
 O  O2  1  0.95053  0.03784  0.63658  1
 O  O3  1  0.29533  0.58663  0.00000  1
 O  O4  1  0.59612  0.59728  0.74414  1
 O  O5  1  0.09612  0.40272  0.75586  1
 O  O6  1  0.79533  0.41337  0.50000  1
 O  O7  1  0.95053  0.03784  0.36342  1
 O  O8  1  0.23890  0.80872  0.50000  1
 O  O9  1  0.37070  0.15138  0.50000  1
 O  O10  1  0.87070  0.84862  0.00000  1
 O  O11  1  0.09612  0.40272  0.24414  1
 O  O12  1  0.45053  0.96216  0.86342  1
 O  O13  1  0.45053  0.96216  0.13658  1
 O  O14  1  0.59612  0.59728  0.25586  1
 S  S1  1  0.13260  0.00815  0.50000  1
 S  S2  1  0.63260  0.99185  0.00000  1
 Te  Te1  1  0.20858  0.68041  0.80035  1
 Te  Te2  1  0.20858  0.68041  0.19965  1
 Te  Te3  1  0.70858  0.31959  0.30035  1
 Te  Te4  1  0.70858  0.31959  0.69965  1
