CIF file written using JARVIS-Tools package.
data_P2Pb3O8
_symmetry_space_group_name_H-M  'C2/c'
_cell_length_a       5.74485
_cell_length_b       7.4902
_cell_length_c       9.46246
_cell_angle_alpha    101.745
_cell_angle_beta     90
_cell_angle_gamma    112.55

_symmetry_Int_Tables_number  15
_chemical_formula_structural  P2Pb3O8
_chemical_formula_sum  P4Pb6O6
_cell_volume  366.7925287658487
_cell_formula_units_Z  2
loop_
  _symmetry_equiv_pos_site_id
 _symmetry_equiv_pos_as_xyz
 1  'x, y, z'
loop_
 _atom_site_type_symbol
 _atom_site_label
 _atom_site_symmetry_multiplicity
 _atom_site_fract_x
 _atom_site_fract_y
 _atom_site_fract_z
 _atom_site_fract_occupancy
 O  O1  1  0.36821  0.28824  0.61480  1
 O  O2  1  0.26346  0.97823  0.41746  1
 O  O3  1  0.28522  0.02177  0.08254  1
 O  O4  1  0.63179  0.71176  0.38520  1
 O  O5  1  0.71478  0.97823  0.91746  1
 O  O6  1  0.61949  0.29469  0.38975  1
 O  O7  1  0.32479  0.70531  0.11025  1
 O  O8  1  0.73654  0.02177  0.58254  1
 O  O9  1  0.67521  0.29469  0.88975  1
 O  O10  1  0.89629  0.72991  0.12734  1
 O  O11  1  0.83362  0.72991  0.62734  1
 O  O12  1  0.10371  0.27009  0.87266  1
 O  O13  1  0.92003  0.28824  0.11480  1
 O  O14  1  0.07997  0.71176  0.88520  1
 O  O15  1  0.16638  0.27009  0.37266  1
 O  O16  1  0.38051  0.70531  0.61025  1
 P  P1  1  0.35578  0.20615  0.44779  1
 P  P2  1  0.14963  0.79385  0.05221  1
 P  P3  1  0.85037  0.20615  0.94779  1
 P  P4  1  0.64422  0.79385  0.55221  1
 Pb  Pb1  1  -0.00710  0.36838  0.64967  1
 Pb  Pb2  1  0.28752  -0.00000  0.75000  1
 Pb  Pb3  1  0.00710  0.63162  0.35033  1
 Pb  Pb4  1  0.37548  0.36838  0.14967  1
 Pb  Pb5  1  0.71248  0.00000  0.25000  1
 Pb  Pb6  1  0.62452  0.63162  0.85033  1
