CIF file written using JARVIS-Tools package.
data_MnSbS2Br
_symmetry_space_group_name_H-M  'C2/m'
_cell_length_a       3.63971
_cell_length_b       6.52272
_cell_length_c       8.85703
_cell_angle_alpha    92.0178
_cell_angle_beta     90
_cell_angle_gamma    106.201

_symmetry_Int_Tables_number  12
_chemical_formula_structural  MnSbS2Br
_chemical_formula_sum  Mn2Sb2S4Br2
_cell_volume  201.7874074147785
_cell_formula_units_Z  2
loop_
  _symmetry_equiv_pos_site_id
 _symmetry_equiv_pos_as_xyz
 1  'x, y, z'
loop_
 _atom_site_type_symbol
 _atom_site_label
 _atom_site_symmetry_multiplicity
 _atom_site_fract_x
 _atom_site_fract_y
 _atom_site_fract_z
 _atom_site_fract_occupancy
 Br  Br1  1  0.37192  0.74385  0.55069  1
 Br  Br2  1  0.62808  0.25615  0.44931  1
 Mn  Mn1  1  0.00000  0.00000  0.00000  1
 Mn  Mn2  1  -0.00000  -0.00000  0.50000  1
 S  S1  1  0.62092  0.24184  0.04527  1
 S  S2  1  0.05762  0.11524  0.75032  1
 S  S3  1  0.37908  0.75816  0.95473  1
 S  S4  1  0.94238  0.88476  0.24968  1
 Sb  Sb1  1  0.70743  0.41487  0.78968  1
 Sb  Sb2  1  0.29257  0.58513  0.21032  1
