CIF file written using JARVIS-Tools package.
data_Tl2GeS3
_symmetry_space_group_name_H-M  'P-1'
_cell_length_a       6.73342
_cell_length_b       6.83815
_cell_length_c       8.4796
_cell_angle_alpha    90.1037
_cell_angle_beta     111.331
_cell_angle_gamma    113.524

_symmetry_Int_Tables_number  2
_chemical_formula_structural  Tl2GeS3
_chemical_formula_sum  Tl4Ge2S6
_cell_volume  328.48654982629563
_cell_formula_units_Z  2
loop_
  _symmetry_equiv_pos_site_id
 _symmetry_equiv_pos_as_xyz
 1  'x, y, z'
loop_
 _atom_site_type_symbol
 _atom_site_label
 _atom_site_symmetry_multiplicity
 _atom_site_fract_x
 _atom_site_fract_y
 _atom_site_fract_z
 _atom_site_fract_occupancy
 Ge  Ge1  1  0.42964  0.54896  0.31361  1
 Ge  Ge2  1  0.57036  0.45104  0.68639  1
 S  S1  1  0.51654  0.88404  0.26685  1
 S  S2  1  0.48346  0.11596  0.73315  1
 S  S3  1  0.76368  0.70737  0.91364  1
 S  S4  1  0.23528  0.47069  0.49664  1
 S  S5  1  0.76472  0.52931  0.50336  1
 S  S6  1  0.23632  0.29263  0.08636  1
 Tl  Tl1  1  0.26008  0.68799  0.88665  1
 Tl  Tl2  1  0.73992  0.31201  0.11335  1
 Tl  Tl3  1  0.88424  0.05798  0.67219  1
 Tl  Tl4  1  0.11576  0.94202  0.32781  1
