CIF file written using JARVIS-Tools package.
data_S
_symmetry_space_group_name_H-M  'Cmcm'
_cell_length_a       6.47419
_cell_length_b       3.50884
_cell_length_c       3.86415
_cell_angle_alpha    90.0104
_cell_angle_beta     90
_cell_angle_gamma    90

_symmetry_Int_Tables_number  63
_chemical_formula_structural  S
_chemical_formula_sum  S4
_cell_volume  87.78164862350495
_cell_formula_units_Z  4
loop_
  _symmetry_equiv_pos_site_id
 _symmetry_equiv_pos_as_xyz
 1  'x, y, z'
loop_
 _atom_site_type_symbol
 _atom_site_label
 _atom_site_symmetry_multiplicity
 _atom_site_fract_x
 _atom_site_fract_y
 _atom_site_fract_z
 _atom_site_fract_occupancy
 S  S1  1  0.09358  0.76846  0.26010  1
 S  S2  1  0.90642  0.26846  0.26010  1
 S  S3  1  0.59358  0.76854  0.75990  1
 S  S4  1  0.40642  0.26854  0.75990  1
