CIF file written using JARVIS-Tools package.
data_Mn2CrO6
_symmetry_space_group_name_H-M  'Cmce'
_cell_length_a       4.98366
_cell_length_b       4.98366
_cell_length_c       9.05876
_cell_angle_alpha    90
_cell_angle_beta     90
_cell_angle_gamma    120.193

_symmetry_Int_Tables_number  64
_chemical_formula_structural  Mn2CrO6
_chemical_formula_sum  Mn4Cr2O2
_cell_volume  194.4687642673045
_cell_formula_units_Z  2
loop_
  _symmetry_equiv_pos_site_id
 _symmetry_equiv_pos_as_xyz
 1  'x, y, z'
loop_
 _atom_site_type_symbol
 _atom_site_label
 _atom_site_symmetry_multiplicity
 _atom_site_fract_x
 _atom_site_fract_y
 _atom_site_fract_z
 _atom_site_fract_occupancy
 Cr  Cr1  1  0.00000  0.00000  0.00000  1
 Cr  Cr2  1  0.50000  0.50000  0.50000  1
 Mn  Mn1  1  0.16668  0.83332  0.50000  1
 Mn  Mn2  1  0.33332  0.66668  0.00000  1
 Mn  Mn3  1  0.66668  0.33332  0.00000  1
 Mn  Mn4  1  0.83332  0.16668  0.50000  1
 O  O1  1  0.00028  0.66594  0.10571  1
 O  O2  1  -0.00028  0.33406  0.89429  1
 O  O3  1  0.83406  0.49972  0.60571  1
 O  O4  1  0.49972  0.83406  0.60571  1
 O  O5  1  0.16594  0.50028  0.39429  1
 O  O6  1  0.33406  -0.00028  0.89429  1
 O  O7  1  0.66547  0.66547  0.89417  1
 O  O8  1  0.16547  0.16547  0.60583  1
 O  O9  1  0.83453  0.83453  0.39417  1
 O  O10  1  0.50028  0.16594  0.39429  1
 O  O11  1  0.33453  0.33453  0.10583  1
 O  O12  1  0.66594  0.00028  0.10571  1
