CIF file written using JARVIS-Tools package.
data_Sr2YTlSn2O7
_symmetry_space_group_name_H-M  'P4/mmm'
_cell_length_a       4.18112
_cell_length_b       4.18112
_cell_length_c       12.5556
_cell_angle_alpha    90
_cell_angle_beta     90
_cell_angle_gamma    90

_symmetry_Int_Tables_number  123
_chemical_formula_structural  Sr2YTlSn2O7
_chemical_formula_sum  Sr2YTlSn2O7
_cell_volume  219.49324449049655
_cell_formula_units_Z  1
loop_
  _symmetry_equiv_pos_site_id
 _symmetry_equiv_pos_as_xyz
 1  'x, y, z'
loop_
 _atom_site_type_symbol
 _atom_site_label
 _atom_site_symmetry_multiplicity
 _atom_site_fract_x
 _atom_site_fract_y
 _atom_site_fract_z
 _atom_site_fract_occupancy
 O  O1  1  0.00000  0.50000  0.38668  1
 O  O2  1  0.50000  0.00000  0.38668  1
 O  O3  1  0.00000  0.50000  0.61332  1
 O  O4  1  0.50000  0.00000  0.61332  1
 O  O5  1  0.00000  0.00000  0.20812  1
 O  O6  1  0.00000  0.00000  0.79188  1
 O  O7  1  0.50000  0.50000  0.00000  1
 Sn  Sn1  1  0.00000  0.00000  0.36954  1
 Sn  Sn2  1  0.00000  0.00000  0.63046  1
 Sr  Sr1  1  0.50000  0.50000  0.18404  1
 Sr  Sr2  1  0.50000  0.50000  0.81596  1
 Tl  Tl1  1  0.00000  0.00000  0.00000  1
 Y  Y1  1  0.50000  0.50000  0.50000  1
