CIF file written using JARVIS-Tools package.
data_SrMoO4
_symmetry_space_group_name_H-M  'I4_1/a'
_cell_length_a       5.42793
_cell_length_b       5.42831
_cell_length_c       7.14042
_cell_angle_alpha    112.342
_cell_angle_beta     112.339
_cell_angle_gamma    89.9984

_symmetry_Int_Tables_number  88
_chemical_formula_structural  SrMoO4
_chemical_formula_sum  Sr2Mo2O8
_cell_volume  177.40644772671288
_cell_formula_units_Z  2
loop_
  _symmetry_equiv_pos_site_id
 _symmetry_equiv_pos_as_xyz
 1  'x, y, z'
loop_
 _atom_site_type_symbol
 _atom_site_label
 _atom_site_symmetry_multiplicity
 _atom_site_fract_x
 _atom_site_fract_y
 _atom_site_fract_z
 _atom_site_fract_occupancy
 Mo  Mo1  1  0.87500  0.62500  0.74999  1
 Mo  Mo2  1  0.12500  0.37500  0.25001  1
 O  O1  1  0.28070  0.43150  0.08675  1
 O  O2  1  0.93150  0.30603  0.58675  1
 O  O3  1  0.65526  0.78073  0.58676  1
 O  O4  1  0.80602  0.15528  0.08677  1
 O  O5  1  0.19398  0.84472  0.91323  1
 O  O6  1  0.34474  0.21927  0.41324  1
 O  O7  1  0.06850  0.69397  0.41325  1
 O  O8  1  0.71930  0.56850  0.91325  1
 Sr  Sr1  1  0.37500  0.12500  0.75000  1
 Sr  Sr2  1  0.62500  0.87500  0.25000  1
