CIF file written using JARVIS-Tools package.
data_MgH2SeO5
_symmetry_space_group_name_H-M  'C2/c'
_cell_length_a       5.37921
_cell_length_b       5.37921
_cell_length_c       7.6692
_cell_angle_alpha    107.158
_cell_angle_beta     107.158
_cell_angle_gamma    99.0836

_symmetry_Int_Tables_number  15
_chemical_formula_structural  MgH2SeO5
_chemical_formula_sum  Mg2H4Se2O0
_cell_volume  195.17687800449636
_cell_formula_units_Z  2
loop_
  _symmetry_equiv_pos_site_id
 _symmetry_equiv_pos_as_xyz
 1  'x, y, z'
loop_
 _atom_site_type_symbol
 _atom_site_label
 _atom_site_symmetry_multiplicity
 _atom_site_fract_x
 _atom_site_fract_y
 _atom_site_fract_z
 _atom_site_fract_occupancy
 H  H1  1  0.63190  0.03249  0.20192  1
 H  H2  1  0.46751  0.86810  0.29808  1
 H  H3  1  0.36810  0.96751  0.79808  1
 H  H4  1  0.53249  0.13190  0.70192  1
 Mg  Mg1  1  -0.00000  0.00000  0.50000  1
 Mg  Mg2  1  0.50000  0.50000  -0.00000  1
 O  O1  1  0.81382  0.71200  0.57710  1
 O  O2  1  0.78800  0.68618  0.92290  1
 O  O3  1  0.62261  0.87739  0.25000  1
 O  O4  1  0.37739  0.12261  0.75000  1
 O  O5  1  0.18651  0.75324  0.34870  1
 O  O6  1  0.18618  0.28800  0.42290  1
 O  O7  1  0.81349  0.24676  0.65130  1
 O  O8  1  0.21200  0.31382  0.07710  1
 O  O9  1  0.74676  0.31349  0.15130  1
 O  O10  1  0.25324  0.68651  0.84870  1
 Se  Se1  1  0.08555  0.41445  0.25000  1
 Se  Se2  1  0.91445  0.58555  0.75000  1
