CIF file written using JARVIS-Tools package.
data_AgTeNO5
_symmetry_space_group_name_H-M  'Pbcn'
_cell_length_a       5.37336
_cell_length_b       5.56949
_cell_length_c       14.1001
_cell_angle_alpha    90
_cell_angle_beta     90
_cell_angle_gamma    90

_symmetry_Int_Tables_number  60
_chemical_formula_structural  AgTeNO5
_chemical_formula_sum  Ag4Te4N4O20
_cell_volume  421.9730797951443
_cell_formula_units_Z  4
loop_
  _symmetry_equiv_pos_site_id
 _symmetry_equiv_pos_as_xyz
 1  'x, y, z'
loop_
 _atom_site_type_symbol
 _atom_site_label
 _atom_site_symmetry_multiplicity
 _atom_site_fract_x
 _atom_site_fract_y
 _atom_site_fract_z
 _atom_site_fract_occupancy
 Ag  Ag1  1  0.25000  0.50000  0.61379  1
 Ag  Ag2  1  0.75000  0.50000  0.38621  1
 Ag  Ag3  1  0.25000  0.00000  0.11379  1
 Ag  Ag4  1  0.75000  0.00000  0.88621  1
 N  N1  1  0.75000  0.00000  0.24453  1
 N  N2  1  0.75000  0.50000  0.74453  1
 N  N3  1  0.25000  0.50000  0.25547  1
 N  N4  1  0.25000  0.00000  0.75547  1
 O  O1  1  0.89083  0.85574  0.28847  1
 O  O2  1  0.25000  0.50000  0.34633  1
 O  O3  1  0.10917  0.14426  0.71153  1
 O  O4  1  0.93723  0.29261  0.97698  1
 O  O5  1  0.56277  0.70739  0.97698  1
 O  O6  1  0.10917  0.35574  0.21153  1
 O  O7  1  0.39083  0.85574  0.71153  1
 O  O8  1  0.60917  0.14426  0.28847  1
 O  O9  1  0.39083  0.64426  0.21153  1
 O  O10  1  0.56277  0.79261  0.47698  1
 O  O11  1  0.06277  0.70739  0.02302  1
 O  O12  1  0.06277  0.79261  0.52302  1
 O  O13  1  0.89083  0.64426  0.78847  1
 O  O14  1  0.25000  0.00000  0.84633  1
 O  O15  1  0.75000  0.50000  0.65367  1
 O  O16  1  0.43723  0.29261  0.02302  1
 O  O17  1  0.43723  0.20739  0.52302  1
 O  O18  1  0.60917  0.35574  0.78847  1
 O  O19  1  0.75000  0.00000  0.15367  1
 O  O20  1  0.93723  0.20739  0.47698  1
 Te  Te1  1  0.75000  0.50000  0.06406  1
 Te  Te2  1  0.25000  0.50000  0.93594  1
 Te  Te3  1  0.25000  0.00000  0.43594  1
 Te  Te4  1  0.75000  0.00000  0.56406  1
