CIF file written using JARVIS-Tools package.
data_Mo2WSe2S4
_symmetry_space_group_name_H-M  'P3m1'
_cell_length_a       3.23394
_cell_length_b       3.23395
_cell_length_c       27.8067
_cell_angle_alpha    90.0018
_cell_angle_beta     90
_cell_angle_gamma    120

_symmetry_Int_Tables_number  156
_chemical_formula_structural  Mo2WSe2S4
_chemical_formula_sum  Mo2WSe2S4
_cell_volume  251.85237980415565
_cell_formula_units_Z  1
loop_
  _symmetry_equiv_pos_site_id
 _symmetry_equiv_pos_as_xyz
 1  'x, y, z'
loop_
 _atom_site_type_symbol
 _atom_site_label
 _atom_site_symmetry_multiplicity
 _atom_site_fract_x
 _atom_site_fract_y
 _atom_site_fract_z
 _atom_site_fract_occupancy
 Mo  Mo1  1  0.33338  0.66677  0.11537  1
 Mo  Mo2  1  0.66663  0.33327  0.34670  1
 S  S1  1  0.66671  0.33341  0.05956  1
 S  S2  1  0.66662  0.33324  0.52271  1
 S  S3  1  0.66673  0.33347  0.17125  1
 S  S4  1  0.66664  0.33328  0.63498  1
 Se  Se1  1  0.33330  0.66660  0.40808  1
 Se  Se2  1  0.33329  0.66657  0.28532  1
 W  W1  1  0.33330  0.66660  0.57887  1
