CIF file written using JARVIS-Tools package.
data_Lu2CCl2
_symmetry_space_group_name_H-M  'R-3m'
_cell_length_a       9.26973
_cell_length_b       9.26973
_cell_length_c       9.26973
_cell_angle_alpha    22.3459
_cell_angle_beta     22.3458
_cell_angle_gamma    22.3459

_symmetry_Int_Tables_number  166
_chemical_formula_structural  Lu2CCl2
_chemical_formula_sum  Lu2CCl2
_cell_volume  100.97561653775456
_cell_formula_units_Z  1
loop_
  _symmetry_equiv_pos_site_id
 _symmetry_equiv_pos_as_xyz
 1  'x, y, z'
loop_
 _atom_site_type_symbol
 _atom_site_label
 _atom_site_symmetry_multiplicity
 _atom_site_fract_x
 _atom_site_fract_y
 _atom_site_fract_z
 _atom_site_fract_occupancy
 C  C1  1  0.50000  0.50000  0.50000  1
 Cl  Cl1  1  0.27787  0.27787  0.27787  1
 Cl  Cl2  1  0.72213  0.72213  0.72213  1
 Lu  Lu1  1  0.88098  0.88098  0.88098  1
 Lu  Lu2  1  0.11902  0.11902  0.11902  1
