CIF file written using JARVIS-Tools package.
data_TmGa
_symmetry_space_group_name_H-M  'Cmcm'
_cell_length_a       3.99138
_cell_length_b       4.25489
_cell_length_c       5.72911
_cell_angle_alpha    111.798
_cell_angle_beta     90
_cell_angle_gamma    90

_symmetry_Int_Tables_number  63
_chemical_formula_structural  TmGa
_chemical_formula_sum  Tm2Ga2
_cell_volume  90.33967168681257
_cell_formula_units_Z  2
loop_
  _symmetry_equiv_pos_site_id
 _symmetry_equiv_pos_as_xyz
 1  'x, y, z'
loop_
 _atom_site_type_symbol
 _atom_site_label
 _atom_site_symmetry_multiplicity
 _atom_site_fract_x
 _atom_site_fract_y
 _atom_site_fract_z
 _atom_site_fract_occupancy
 Ga  Ga1  1  0.75000  0.42079  0.84158  1
 Ga  Ga2  1  0.25000  0.57921  0.15842  1
 Tm  Tm1  1  0.75000  0.13908  0.27817  1
 Tm  Tm2  1  0.25000  0.86092  0.72183  1
