CIF file written using JARVIS-Tools package.
data_Mg3Cd
_symmetry_space_group_name_H-M  'Pmm2'
_cell_length_a       6.2787
_cell_length_b       3.23632
_cell_length_c       5.03993
_cell_angle_alpha    90
_cell_angle_beta     90
_cell_angle_gamma    121.027

_symmetry_Int_Tables_number  25
_chemical_formula_structural  Mg3Cd
_chemical_formula_sum  Mg3Cd
_cell_volume  87.7581227846207
_cell_formula_units_Z  1
loop_
  _symmetry_equiv_pos_site_id
 _symmetry_equiv_pos_as_xyz
 1  'x, y, z'
loop_
 _atom_site_type_symbol
 _atom_site_label
 _atom_site_symmetry_multiplicity
 _atom_site_fract_x
 _atom_site_fract_y
 _atom_site_fract_z
 _atom_site_fract_occupancy
 Cd  Cd1  1  0.16742  0.66742  0.25000  1
 Mg  Mg1  1  0.67132  0.67132  0.25000  1
 Mg  Mg2  1  0.32965  0.32965  0.75000  1
 Mg  Mg3  1  0.83162  0.33162  0.75000  1
