CIF file written using JARVIS-Tools package.
data_Mg3Sb
_symmetry_space_group_name_H-M  'P4/mmm'
_cell_length_a       6.36317
_cell_length_b       4.4776
_cell_length_c       4.51793
_cell_angle_alpha    90
_cell_angle_beta     90
_cell_angle_gamma    134.722

_symmetry_Int_Tables_number  123
_chemical_formula_structural  Mg3Sb
_chemical_formula_sum  Mg3Sb
_cell_volume  91.46118352347642
_cell_formula_units_Z  1
loop_
  _symmetry_equiv_pos_site_id
 _symmetry_equiv_pos_as_xyz
 1  'x, y, z'
loop_
 _atom_site_type_symbol
 _atom_site_label
 _atom_site_symmetry_multiplicity
 _atom_site_fract_x
 _atom_site_fract_y
 _atom_site_fract_z
 _atom_site_fract_occupancy
 Mg  Mg1  1  0.74995  0.74995  0.25000  1
 Mg  Mg2  1  0.24990  0.24990  0.75000  1
 Mg  Mg3  1  0.75002  0.25002  0.75000  1
 Sb  Sb1  1  0.25013  0.75013  0.25000  1
