CIF file written using JARVIS-Tools package.
data_Mg3Ni
_symmetry_space_group_name_H-M  'Pm-3m'
_cell_length_a       5.83732
_cell_length_b       4.12666
_cell_length_c       4.1285
_cell_angle_alpha    90
_cell_angle_beta     90
_cell_angle_gamma    134.987

_symmetry_Int_Tables_number  221
_chemical_formula_structural  Mg3Ni
_chemical_formula_sum  Mg3Ni
_cell_volume  70.33801343416543
_cell_formula_units_Z  1
loop_
  _symmetry_equiv_pos_site_id
 _symmetry_equiv_pos_as_xyz
 1  'x, y, z'
loop_
 _atom_site_type_symbol
 _atom_site_label
 _atom_site_symmetry_multiplicity
 _atom_site_fract_x
 _atom_site_fract_y
 _atom_site_fract_z
 _atom_site_fract_occupancy
 Mg  Mg1  1  0.74998  0.74998  0.25000  1
 Mg  Mg2  1  0.25002  0.25002  0.75000  1
 Mg  Mg3  1  0.74998  0.24998  0.75000  1
 Ni  Ni1  1  0.25001  0.75001  0.25000  1
