CIF file written using JARVIS-Tools package.
data_LiCrPO4F
_symmetry_space_group_name_H-M  'P-1'
_cell_length_a       5.13309
_cell_length_b       5.29445
_cell_length_c       7.15281
_cell_angle_alpha    106.947
_cell_angle_beta     108.422
_cell_angle_gamma    98.4379

_symmetry_Int_Tables_number  2
_chemical_formula_structural  LiCrPO4F
_chemical_formula_sum  Li2Cr2P2O8F2
_cell_volume  170.20191214096403
_cell_formula_units_Z  2
loop_
  _symmetry_equiv_pos_site_id
 _symmetry_equiv_pos_as_xyz
 1  'x, y, z'
loop_
 _atom_site_type_symbol
 _atom_site_label
 _atom_site_symmetry_multiplicity
 _atom_site_fract_x
 _atom_site_fract_y
 _atom_site_fract_z
 _atom_site_fract_occupancy
 Cr  Cr1  1  0.00000  0.00000  0.00000  1
 Cr  Cr2  1  0.00000  0.00000  0.50000  1
 F  F1  1  0.13234  0.93801  0.26590  1
 F  F2  1  0.86766  0.06199  0.73410  1
 Li  Li1  1  0.26920  0.61853  0.19593  1
 Li  Li2  1  0.73080  0.38147  0.80407  1
 O  O1  1  0.31281  0.33744  0.65861  1
 O  O2  1  0.68719  0.66256  0.34139  1
 O  O3  1  0.37070  0.23650  0.07339  1
 O  O4  1  0.74846  0.21751  0.40022  1
 O  O5  1  0.62930  0.76350  0.92661  1
 O  O6  1  0.25154  0.78249  0.59978  1
 O  O7  1  0.11114  0.66040  0.88157  1
 O  O8  1  0.88886  0.33960  0.11843  1
 P  P1  1  0.32061  0.64160  0.76154  1
 P  P2  1  0.67939  0.35840  0.23846  1
