CIF file written using JARVIS-Tools package.
data_BeH2O2
_symmetry_space_group_name_H-M  'P4_12_12'
_cell_length_a       4.80853
_cell_length_b       4.81005
_cell_length_c       5.84483
_cell_angle_alpha    90
_cell_angle_beta     90
_cell_angle_gamma    90

_symmetry_Int_Tables_number  92
_chemical_formula_structural  BeH2O2
_chemical_formula_sum  Be4H8O8
_cell_volume  135.18669203291148
_cell_formula_units_Z  4
loop_
  _symmetry_equiv_pos_site_id
 _symmetry_equiv_pos_as_xyz
 1  'x, y, z'
loop_
 _atom_site_type_symbol
 _atom_site_label
 _atom_site_symmetry_multiplicity
 _atom_site_fract_x
 _atom_site_fract_y
 _atom_site_fract_z
 _atom_site_fract_occupancy
 Be  Be1  1  0.08081  0.16932  0.87499  1
 Be  Be2  1  0.58081  0.33068  0.12501  1
 Be  Be3  1  0.41919  0.83068  0.37499  1
 Be  Be4  1  0.91919  0.66932  0.62501  1
 H  H1  1  -0.00718  0.92468  0.30313  1
 H  H2  1  0.00718  0.42468  0.19687  1
 H  H3  1  0.49282  0.57532  0.69687  1
 H  H4  1  0.50718  0.07532  0.80313  1
 H  H5  1  0.17440  0.74305  0.94693  1
 H  H6  1  0.32560  0.25695  0.44693  1
 H  H7  1  0.82560  0.24305  0.55307  1
 H  H8  1  0.67440  0.75695  0.05307  1
 O  O1  1  0.52555  0.66854  0.14324  1
 O  O2  1  0.47445  0.16854  0.35676  1
 O  O3  1  0.91879  0.27579  0.10676  1
 O  O4  1  0.41879  0.22421  0.89324  1
 O  O5  1  0.58121  0.72421  0.60676  1
 O  O6  1  0.08121  0.77579  0.39324  1
 O  O7  1  0.02555  0.83146  0.85676  1
 O  O8  1  0.97445  0.33146  0.64324  1
