CIF file written using JARVIS-Tools package.
data_LiV6O7F5
_symmetry_space_group_name_H-M  'P1'
_cell_length_a       4.86736
_cell_length_b       5.56002
_cell_length_c       7.55255
_cell_angle_alpha    84.5244
_cell_angle_beta     87.352
_cell_angle_gamma    86.3318

_symmetry_Int_Tables_number  1
_chemical_formula_structural  LiV6O7F5
_chemical_formula_sum  LiV6O7F5
_cell_volume  202.87660395917177
_cell_formula_units_Z  1
loop_
  _symmetry_equiv_pos_site_id
 _symmetry_equiv_pos_as_xyz
 1  'x, y, z'
loop_
 _atom_site_type_symbol
 _atom_site_label
 _atom_site_symmetry_multiplicity
 _atom_site_fract_x
 _atom_site_fract_y
 _atom_site_fract_z
 _atom_site_fract_occupancy
 F  F1  1  0.82652  0.67931  0.09719  1
 F  F2  1  0.17832  0.64754  0.58341  1
 F  F3  1  0.17675  0.98686  0.24512  1
 F  F4  1  0.82033  0.00625  0.75949  1
 F  F5  1  0.32467  0.14991  0.57563  1
 Li  Li1  1  0.49867  0.82135  0.17693  1
 O  O1  1  0.83384  0.36566  0.43414  1
 O  O2  1  0.67638  0.87175  0.42459  1
 O  O3  1  0.31930  0.79461  0.91699  1
 O  O4  1  0.33194  0.49621  0.23908  1
 O  O5  1  0.16897  0.29288  0.90226  1
 O  O6  1  0.67292  0.17068  0.09581  1
 O  O7  1  0.66999  0.50598  0.76644  1
 V  V1  1  0.99096  0.65852  0.34238  1
 V  V2  1  0.50824  0.81141  0.67476  1
 V  V3  1  0.55821  0.20988  0.33889  1
 V  V4  1  0.44887  0.45452  0.98617  1
 V  V5  1  0.01128  0.00213  0.99959  1
 V  V6  1  0.98103  0.33657  0.67574  1
