CIF file written using JARVIS-Tools package.
data_MoO3
_symmetry_space_group_name_H-M  'Pnma'
_cell_length_a       5.32512
_cell_length_b       5.15845
_cell_length_c       7.39867
_cell_angle_alpha    90
_cell_angle_beta     90.0018
_cell_angle_gamma    90

_symmetry_Int_Tables_number  62
_chemical_formula_structural  MoO3
_chemical_formula_sum  Mo4O2
_cell_volume  203.23669019684812
_cell_formula_units_Z  4
loop_
  _symmetry_equiv_pos_site_id
 _symmetry_equiv_pos_as_xyz
 1  'x, y, z'
loop_
 _atom_site_type_symbol
 _atom_site_label
 _atom_site_symmetry_multiplicity
 _atom_site_fract_x
 _atom_site_fract_y
 _atom_site_fract_z
 _atom_site_fract_occupancy
 Mo  Mo1  1  0.00000  0.50000  0.00000  1
 Mo  Mo2  1  0.50000  0.00000  -0.00000  1
 Mo  Mo3  1  0.50000  0.00000  0.50000  1
 Mo  Mo4  1  0.00000  0.50000  0.50000  1
 O  O1  1  0.70935  0.29381  0.54605  1
 O  O2  1  0.79065  0.79381  0.45395  1
 O  O3  1  0.20933  0.20617  0.95395  1
 O  O4  1  0.29067  0.70617  0.04605  1
 O  O5  1  0.29065  0.70619  0.45395  1
 O  O6  1  0.20935  0.20619  0.54605  1
 O  O7  1  0.79067  0.79383  0.04605  1
 O  O8  1  0.70933  0.29383  0.95395  1
 O  O9  1  0.51448  0.90900  0.75000  1
 O  O10  1  0.98552  0.40900  0.25000  1
 O  O11  1  0.01448  0.59100  0.75000  1
 O  O12  1  0.48552  0.09100  0.25000  1
