CIF file written using JARVIS-Tools package.
data_Ca3SiO5
_symmetry_space_group_name_H-M  'R3m'
_cell_length_a       9.37741
_cell_length_b       9.3774
_cell_length_c       9.3774
_cell_angle_alpha    44.8566
_cell_angle_beta     44.8566
_cell_angle_gamma    44.8566

_symmetry_Int_Tables_number  160
_chemical_formula_structural  Ca3SiO5
_chemical_formula_sum  Ca9Si3O5
_cell_volume  373.2792771681262
_cell_formula_units_Z  3
loop_
  _symmetry_equiv_pos_site_id
 _symmetry_equiv_pos_as_xyz
 1  'x, y, z'
loop_
 _atom_site_type_symbol
 _atom_site_label
 _atom_site_symmetry_multiplicity
 _atom_site_fract_x
 _atom_site_fract_y
 _atom_site_fract_z
 _atom_site_fract_occupancy
 Ca  Ca1  1  0.99899  0.49789  0.49789  1
 Ca  Ca2  1  0.49789  0.99899  0.49789  1
 Ca  Ca3  1  0.70518  0.25391  0.70518  1
 Ca  Ca4  1  0.29215  0.29215  0.74354  1
 Ca  Ca5  1  0.74354  0.29215  0.29215  1
 Ca  Ca6  1  0.29215  0.74354  0.29215  1
 Ca  Ca7  1  0.70518  0.70518  0.25391  1
 Ca  Ca8  1  0.25391  0.70518  0.70518  1
 Ca  Ca9  1  0.49789  0.49789  0.99899  1
 O  O1  1  0.36095  0.98780  0.36095  1
 O  O2  1  0.92639  0.92639  0.92639  1
 O  O3  1  0.38408  0.38408  0.38408  1
 O  O4  1  0.05102  0.67314  0.67314  1
 O  O5  1  0.71398  0.71398  0.71398  1
 O  O6  1  0.67314  0.67314  0.05102  1
 O  O7  1  0.98780  0.36095  0.36095  1
 O  O8  1  0.14717  0.14717  0.14717  1
 O  O9  1  0.61378  0.61378  0.61378  1
 O  O10  1  0.49976  0.49976  0.49976  1
 O  O11  1  0.76369  0.14026  0.14026  1
 O  O12  1  0.14026  0.76369  0.14026  1
 O  O13  1  0.67314  0.05102  0.67314  1
 O  O14  1  0.14026  0.14026  0.76369  1
 O  O15  1  0.36095  0.36095  0.98780  1
 Si  Si1  1  0.21350  0.21350  0.21350  1
 Si  Si2  1  0.99255  0.99255  0.99255  1
 Si  Si3  1  0.77871  0.77871  0.77871  1
