CIF file written using JARVIS-Tools package.
data_Rb2AuBr
_symmetry_space_group_name_H-M  'Immm'
_cell_length_a       12.7564
_cell_length_b       10.7235
_cell_length_c       10.7235
_cell_angle_alpha    54.639
_cell_angle_beta     53.5021
_cell_angle_gamma    53.5023

_symmetry_Int_Tables_number  71
_chemical_formula_structural  Rb2AuBr
_chemical_formula_sum  Rb2AuBr
_cell_volume  888.6583762419097
_cell_formula_units_Z  1
loop_
  _symmetry_equiv_pos_site_id
 _symmetry_equiv_pos_as_xyz
 1  'x, y, z'
loop_
 _atom_site_type_symbol
 _atom_site_label
 _atom_site_symmetry_multiplicity
 _atom_site_fract_x
 _atom_site_fract_y
 _atom_site_fract_z
 _atom_site_fract_occupancy
 Au  Au1  1  0.50000  0.00000  0.00000  1
 Br  Br1  1  0.00000  0.00000  0.00000  1
 Rb  Rb1  1  0.75176  -0.00000  0.00000  1
 Rb  Rb2  1  0.24824  0.00000  -0.00000  1
