CIF file written using JARVIS-Tools package.
data_Sr2PdPt
_symmetry_space_group_name_H-M  'C2/m'
_cell_length_a       12.7048
_cell_length_b       5.20246
_cell_length_c       5.20246
_cell_angle_alpha    60.122
_cell_angle_beta     35.3473
_cell_angle_gamma    35.3471

_symmetry_Int_Tables_number  12
_chemical_formula_structural  Sr2PdPt
_chemical_formula_sum  Sr2PdPt
_cell_volume  99.71020782366338
_cell_formula_units_Z  1
loop_
  _symmetry_equiv_pos_site_id
 _symmetry_equiv_pos_as_xyz
 1  'x, y, z'
loop_
 _atom_site_type_symbol
 _atom_site_label
 _atom_site_symmetry_multiplicity
 _atom_site_fract_x
 _atom_site_fract_y
 _atom_site_fract_z
 _atom_site_fract_occupancy
 Pd  Pd1  1  0.00000  0.00000  0.00000  1
 Pt  Pt1  1  0.50000  0.00000  -0.00000  1
 Sr  Sr1  1  0.75012  -0.00012  -0.00012  1
 Sr  Sr2  1  0.24988  0.00012  0.00012  1
