CIF file written using JARVIS-Tools package.
data_Al2OsRu
_symmetry_space_group_name_H-M  'Immm'
_cell_length_a       10.6259
_cell_length_b       5.94313
_cell_length_c       5.94313
_cell_angle_alpha    45.6515
_cell_angle_beta     26.6244
_cell_angle_gamma    26.6244

_symmetry_Int_Tables_number  71
_chemical_formula_structural  Al2OsRu
_chemical_formula_sum  Al2OsRu
_cell_volume  65.33344463931078
_cell_formula_units_Z  1
loop_
  _symmetry_equiv_pos_site_id
 _symmetry_equiv_pos_as_xyz
 1  'x, y, z'
loop_
 _atom_site_type_symbol
 _atom_site_label
 _atom_site_symmetry_multiplicity
 _atom_site_fract_x
 _atom_site_fract_y
 _atom_site_fract_z
 _atom_site_fract_occupancy
 Al  Al1  1  0.75014  0.00000  1.00000  1
 Al  Al2  1  0.24986  1.00000  0.00000  1
 Os  Os1  1  0.50000  -0.00000  -0.00000  1
 Ru  Ru1  1  0.00000  0.00000  0.00000  1
