CIF file written using JARVIS-Tools package.
data_LiV2OF5
_symmetry_space_group_name_H-M  'Pc'
_cell_length_a       5.42971
_cell_length_b       4.99722
_cell_length_c       7.51457
_cell_angle_alpha    90
_cell_angle_beta     95.6348
_cell_angle_gamma    90

_symmetry_Int_Tables_number  7
_chemical_formula_structural  LiV2OF5
_chemical_formula_sum  Li2V4O2F0
_cell_volume  202.91093018293654
_cell_formula_units_Z  2
loop_
  _symmetry_equiv_pos_site_id
 _symmetry_equiv_pos_as_xyz
 1  'x, y, z'
loop_
 _atom_site_type_symbol
 _atom_site_label
 _atom_site_symmetry_multiplicity
 _atom_site_fract_x
 _atom_site_fract_y
 _atom_site_fract_z
 _atom_site_fract_occupancy
 F  F1  1  0.29611  0.20711  0.58082  1
 F  F2  1  0.68861  0.18239  0.92182  1
 F  F3  1  0.68861  0.81761  0.42182  1
 F  F4  1  0.29611  0.79289  0.08082  1
 F  F5  1  -0.00470  0.84599  0.74686  1
 F  F6  1  0.49404  0.63337  0.75347  1
 F  F7  1  0.49404  0.36663  0.25347  1
 F  F8  1  0.82095  0.32047  0.56829  1
 F  F9  1  -0.00470  0.15401  0.24686  1
 F  F10  1  0.82095  0.67953  0.06829  1
 Li  Li1  1  0.08784  0.48192  0.71356  1
 Li  Li2  1  0.08784  0.51808  0.21356  1
 O  O1  1  0.20070  0.30040  0.94786  1
 O  O2  1  0.20070  0.69960  0.44786  1
 V  V1  1  0.00669  0.01830  0.99073  1
 V  V2  1  0.48979  0.51555  0.49720  1
 V  V3  1  0.48979  0.48445  0.99720  1
 V  V4  1  0.00669  0.98170  0.49073  1
