CIF file written using JARVIS-Tools package.
data_UH2O4
_symmetry_space_group_name_H-M  'Cmce'
_cell_length_a       5.42069
_cell_length_b       5.42069
_cell_length_c       8.97931
_cell_angle_alpha    90
_cell_angle_beta     90
_cell_angle_gamma    37.4985

_symmetry_Int_Tables_number  64
_chemical_formula_structural  UH2O4
_chemical_formula_sum  U2H4O8
_cell_volume  160.61486095432215
_cell_formula_units_Z  2
loop_
  _symmetry_equiv_pos_site_id
 _symmetry_equiv_pos_as_xyz
 1  'x, y, z'
loop_
 _atom_site_type_symbol
 _atom_site_label
 _atom_site_symmetry_multiplicity
 _atom_site_fract_x
 _atom_site_fract_y
 _atom_site_fract_z
 _atom_site_fract_occupancy
 H  H1  1  0.23265  0.23265  0.62211  1
 H  H2  1  0.76735  0.76735  0.37789  1
 H  H3  1  0.26735  0.26735  0.12211  1
 H  H4  1  0.73265  0.73265  0.87789  1
 O  O1  1  0.33066  0.33066  0.61177  1
 O  O2  1  0.66934  0.66934  0.38823  1
 O  O3  1  0.16934  0.16934  0.11177  1
 O  O4  1  0.83066  0.83066  0.88823  1
 O  O5  1  0.07112  0.07112  0.61491  1
 O  O6  1  0.92888  0.92888  0.38509  1
 O  O7  1  0.42888  0.42888  0.11491  1
 O  O8  1  0.57112  0.57112  0.88509  1
 U  U1  1  0.50000  0.50000  0.50000  1
 U  U2  1  0.00000  0.00000  0.00000  1
