CIF file written using JARVIS-Tools package.
data_FeAs4F18
_symmetry_space_group_name_H-M  'P2_1/c'
_cell_length_a       7.26505
_cell_length_b       7.29995
_cell_length_c       12.3494
_cell_angle_alpha    90
_cell_angle_beta     90
_cell_angle_gamma    93.2965

_symmetry_Int_Tables_number  14
_chemical_formula_structural  FeAs4F18
_chemical_formula_sum  Fe2As8F36
_cell_volume  653.8610714488765
_cell_formula_units_Z  2
loop_
  _symmetry_equiv_pos_site_id
 _symmetry_equiv_pos_as_xyz
 1  'x, y, z'
loop_
 _atom_site_type_symbol
 _atom_site_label
 _atom_site_symmetry_multiplicity
 _atom_site_fract_x
 _atom_site_fract_y
 _atom_site_fract_z
 _atom_site_fract_occupancy
 As  As1  1  0.52543  0.43701  0.79284  1
 As  As2  1  -0.00000  0.50000  0.00000  1
 As  As3  1  0.50000  -0.00000  0.50000  1
 As  As4  1  0.97457  0.06299  0.29284  1
 As  As5  1  -0.00000  0.50000  0.50000  1
 As  As6  1  0.02543  0.93701  0.70716  1
 As  As7  1  0.47457  0.56299  0.20716  1
 As  As8  1  0.50000  -0.00000  0.00000  1
 F  F1  1  0.13764  0.74140  0.74572  1
 F  F2  1  0.30780  0.35227  0.74845  1
 F  F3  1  0.19220  0.14773  0.24845  1
 F  F4  1  0.69220  0.64773  0.25155  1
 F  F5  1  0.80780  0.85227  0.75155  1
 F  F6  1  0.93526  0.73025  0.96187  1
 F  F7  1  0.56474  0.76975  0.46187  1
 F  F8  1  0.06474  0.26975  0.03813  1
 F  F9  1  0.43654  0.92232  0.62966  1
 F  F10  1  0.93654  0.42232  0.87034  1
 F  F11  1  0.56346  0.07768  0.37034  1
 F  F12  1  0.06346  0.57768  0.12966  1
 F  F13  1  0.27255  0.94745  0.45596  1
 F  F14  1  0.07503  0.04767  0.84174  1
 F  F15  1  0.72745  0.05255  0.54404  1
 F  F16  1  0.22745  0.55255  0.95596  1
 F  F17  1  0.43526  0.23025  0.53813  1
 F  F18  1  0.77255  0.44745  0.04404  1
 F  F19  1  0.42497  0.45233  0.34174  1
 F  F20  1  0.45584  0.90771  0.87169  1
 F  F21  1  0.43078  0.21708  0.95544  1
 F  F22  1  0.76359  0.43489  0.45954  1
 F  F23  1  0.26359  0.93489  0.04046  1
 F  F24  1  0.23641  0.56511  0.54046  1
 F  F25  1  0.56922  0.78292  0.04456  1
 F  F26  1  0.93078  0.71708  0.54456  1
 F  F27  1  0.86236  0.25860  0.25428  1
 F  F28  1  0.06922  0.28292  0.45544  1
 F  F29  1  0.04416  0.59229  0.37169  1
 F  F30  1  0.54416  0.09229  0.12831  1
 F  F31  1  0.95584  0.40771  0.62831  1
 F  F32  1  0.73641  0.06511  0.95954  1
 F  F33  1  0.63764  0.24140  0.75428  1
 F  F34  1  0.57503  0.54767  0.65826  1
 F  F35  1  0.92497  0.95233  0.15826  1
 F  F36  1  0.36236  0.75860  0.24572  1
 Fe  Fe1  1  0.50000  0.50000  0.50000  1
 Fe  Fe2  1  0.00000  0.00000  0.00000  1
