CIF file written using JARVIS-Tools package.
data_Mn5SbO12
_symmetry_space_group_name_H-M  'C2/m'
_cell_length_a       5.10822
_cell_length_b       5.10822
_cell_length_c       9.00896
_cell_angle_alpha    84.5701
_cell_angle_beta     84.5701
_cell_angle_gamma    119.999

_symmetry_Int_Tables_number  12
_chemical_formula_structural  Mn5SbO12
_chemical_formula_sum  Mn5SbO2
_cell_volume  199.90821322521853
_cell_formula_units_Z  1
loop_
  _symmetry_equiv_pos_site_id
 _symmetry_equiv_pos_as_xyz
 1  'x, y, z'
loop_
 _atom_site_type_symbol
 _atom_site_label
 _atom_site_symmetry_multiplicity
 _atom_site_fract_x
 _atom_site_fract_y
 _atom_site_fract_z
 _atom_site_fract_occupancy
 Mn  Mn1  1  0.16693  0.83307  0.50000  1
 Mn  Mn2  1  0.33334  0.66666  0.00000  1
 Mn  Mn3  1  0.50000  0.50000  0.50000  1
 Mn  Mn4  1  0.66666  0.33334  -0.00000  1
 Mn  Mn5  1  0.83307  0.16693  0.50000  1
 O  O1  1  0.96300  0.61331  0.11084  1
 O  O2  1  0.38669  0.03700  0.88916  1
 O  O3  1  0.61331  0.96300  0.11084  1
 O  O4  1  0.46542  0.79858  0.60413  1
 O  O5  1  0.20142  0.53458  0.39587  1
 O  O6  1  0.86869  0.86869  0.39458  1
 O  O7  1  0.68730  0.68730  0.88916  1
 O  O8  1  0.13131  0.13131  0.60542  1
 O  O9  1  0.53458  0.20142  0.39587  1
 O  O10  1  0.79858  0.46542  0.60413  1
 O  O11  1  0.31270  0.31270  0.11084  1
 O  O12  1  0.03700  0.38669  0.88916  1
 Sb  Sb1  1  0.00000  0.00000  0.00000  1
