CIF file written using JARVIS-Tools package.
data_NaSb
_symmetry_space_group_name_H-M  'P2_1/c'
_cell_length_a       6.77846
_cell_length_b       6.35739
_cell_length_c       12.4622
_cell_angle_alpha    90
_cell_angle_beta     117.121
_cell_angle_gamma    90

_symmetry_Int_Tables_number  14
_chemical_formula_structural  NaSb
_chemical_formula_sum  Na8Sb8
_cell_volume  477.98801553323096
_cell_formula_units_Z  8
loop_
  _symmetry_equiv_pos_site_id
 _symmetry_equiv_pos_as_xyz
 1  'x, y, z'
loop_
 _atom_site_type_symbol
 _atom_site_label
 _atom_site_symmetry_multiplicity
 _atom_site_fract_x
 _atom_site_fract_y
 _atom_site_fract_z
 _atom_site_fract_occupancy
 Na  Na1  1  0.23232  0.16401  0.54195  1
 Na  Na2  1  0.76768  0.66401  0.95805  1
 Na  Na3  1  0.76768  0.83599  0.45805  1
 Na  Na4  1  0.23232  0.33599  0.04195  1
 Na  Na5  1  0.23084  0.90344  0.82575  1
 Na  Na6  1  0.76916  0.40344  0.67425  1
 Na  Na7  1  0.76916  0.09656  0.17425  1
 Na  Na8  1  0.23084  0.59656  0.32575  1
 Sb  Sb1  1  0.28831  0.66308  0.60154  1
 Sb  Sb2  1  0.71169  0.16308  0.89846  1
 Sb  Sb3  1  0.71169  0.33692  0.39846  1
 Sb  Sb4  1  0.28831  0.83692  0.10154  1
 Sb  Sb5  1  0.30348  0.40608  0.79805  1
 Sb  Sb6  1  0.69652  0.90608  0.70195  1
 Sb  Sb7  1  0.69652  0.59392  0.20195  1
 Sb  Sb8  1  0.30348  0.09392  0.29805  1
