CIF file written using JARVIS-Tools package.
data_NbInRu
_symmetry_space_group_name_H-M  'Imm2'
_cell_length_a       4.65097
_cell_length_b       3.30493
_cell_length_c       4.65163
_cell_angle_alpha    110.812
_cell_angle_beta     102.077
_cell_angle_gamma    110.809

_symmetry_Int_Tables_number  44
_chemical_formula_structural  NbInRu
_chemical_formula_sum  NbInRu
_cell_volume  57.6883826451137
_cell_formula_units_Z  1
loop_
  _symmetry_equiv_pos_site_id
 _symmetry_equiv_pos_as_xyz
 1  'x, y, z'
loop_
 _atom_site_type_symbol
 _atom_site_label
 _atom_site_symmetry_multiplicity
 _atom_site_fract_x
 _atom_site_fract_y
 _atom_site_fract_z
 _atom_site_fract_occupancy
 In  In1  1  0.19789  -0.00004  0.80202  1
 Nb  Nb1  1  0.78668  -0.00004  0.21330  1
 Ru  Ru1  1  0.51534  0.49990  0.48445  1
