CIF file written using JARVIS-Tools package.
data_BaLi2Ca
_symmetry_space_group_name_H-M  'Immm'
_cell_length_a       14.4897
_cell_length_b       13.8658
_cell_length_c       13.8658
_cell_angle_alpha    59.0384
_cell_angle_beta     58.5
_cell_angle_gamma    58.5

_symmetry_Int_Tables_number  71
_chemical_formula_structural  BaLi2Ca
_chemical_formula_sum  BaLi2Ca
_cell_volume  1910.2789900745897
_cell_formula_units_Z  1
loop_
  _symmetry_equiv_pos_site_id
 _symmetry_equiv_pos_as_xyz
 1  'x, y, z'
loop_
 _atom_site_type_symbol
 _atom_site_label
 _atom_site_symmetry_multiplicity
 _atom_site_fract_x
 _atom_site_fract_y
 _atom_site_fract_z
 _atom_site_fract_occupancy
 Ba  Ba1  1  0.50000  0.00000  0.00000  1
 Ca  Ca1  1  0.00000  0.00000  0.00000  1
 Li  Li1  1  0.76396  -0.00000  0.00000  1
 Li  Li2  1  0.23604  0.00000  0.00000  1
