CIF file written using JARVIS-Tools package.
data_Mg3Bi
_symmetry_space_group_name_H-M  'Pmm2'
_cell_length_a       6.54215
_cell_length_b       3.47261
_cell_length_c       5.24982
_cell_angle_alpha    90
_cell_angle_beta     90
_cell_angle_gamma    122.06

_symmetry_Int_Tables_number  25
_chemical_formula_structural  Mg3Bi
_chemical_formula_sum  Mg3Bi
_cell_volume  101.0781595599318
_cell_formula_units_Z  1
loop_
  _symmetry_equiv_pos_site_id
 _symmetry_equiv_pos_as_xyz
 1  'x, y, z'
loop_
 _atom_site_type_symbol
 _atom_site_label
 _atom_site_symmetry_multiplicity
 _atom_site_fract_x
 _atom_site_fract_y
 _atom_site_fract_z
 _atom_site_fract_occupancy
 Bi  Bi1  1  0.16489  0.66489  0.25000  1
 Mg  Mg1  1  0.67179  0.67179  0.25000  1
 Mg  Mg2  1  0.34341  0.34341  0.75000  1
 Mg  Mg3  1  0.81991  0.31991  0.75000  1
