CIF file written using JARVIS-Tools package.
data_Y2Si2O7
_symmetry_space_group_name_H-M  'P2_1/m'
_cell_length_a       5.10393
_cell_length_b       8.07871
_cell_length_c       7.40756
_cell_angle_alpha    90
_cell_angle_beta     107.228
_cell_angle_gamma    90

_symmetry_Int_Tables_number  11
_chemical_formula_structural  Y2Si2O7
_chemical_formula_sum  Y4Si4O4
_cell_volume  291.73359802583025
_cell_formula_units_Z  2
loop_
  _symmetry_equiv_pos_site_id
 _symmetry_equiv_pos_as_xyz
 1  'x, y, z'
loop_
 _atom_site_type_symbol
 _atom_site_label
 _atom_site_symmetry_multiplicity
 _atom_site_fract_x
 _atom_site_fract_y
 _atom_site_fract_z
 _atom_site_fract_occupancy
 O  O1  1  0.53453  0.07854  0.79784  1
 O  O2  1  0.74251  0.25000  0.08578  1
 O  O3  1  0.18223  0.25000  0.94262  1
 O  O4  1  0.07815  0.08116  0.33033  1
 O  O5  1  0.68065  0.25000  0.44048  1
 O  O6  1  0.46547  0.92146  0.20216  1
 O  O7  1  0.07815  0.41884  0.33033  1
 O  O8  1  0.92185  0.91884  0.66967  1
 O  O9  1  0.31935  0.75000  0.55952  1
 O  O10  1  0.81777  0.75000  0.05738  1
 O  O11  1  0.53453  0.42146  0.79784  1
 O  O12  1  0.92185  0.58116  0.66967  1
 O  O13  1  0.46547  0.57854  0.20216  1
 O  O14  1  0.25749  0.75000  0.91422  1
 Si  Si1  1  0.89901  0.25000  0.31869  1
 Si  Si2  1  0.52686  0.75000  0.10651  1
 Si  Si3  1  0.10099  0.75000  0.68131  1
 Si  Si4  1  0.47314  0.25000  0.89349  1
 Y  Y1  1  0.50000  0.50000  0.50000  1
 Y  Y2  1  0.50000  0.00000  0.50000  1
 Y  Y3  1  0.00000  0.00000  0.00000  1
 Y  Y4  1  0.00000  0.50000  0.00000  1
