CIF file written using JARVIS-Tools package.
data_Li4NiB2O6
_symmetry_space_group_name_H-M  'Pnnm'
_cell_length_a       3.20199
_cell_length_b       7.82696
_cell_length_c       9.27943
_cell_angle_alpha    90
_cell_angle_beta     90
_cell_angle_gamma    90

_symmetry_Int_Tables_number  58
_chemical_formula_structural  Li4NiB2O6
_chemical_formula_sum  Li8Ni2B4O2
_cell_volume  232.55935984213843
_cell_formula_units_Z  2
loop_
  _symmetry_equiv_pos_site_id
 _symmetry_equiv_pos_as_xyz
 1  'x, y, z'
loop_
 _atom_site_type_symbol
 _atom_site_label
 _atom_site_symmetry_multiplicity
 _atom_site_fract_x
 _atom_site_fract_y
 _atom_site_fract_z
 _atom_site_fract_occupancy
 B  B1  1  0.50000  0.23764  0.80291  1
 B  B2  1  0.00000  0.73764  0.69709  1
 B  B3  1  0.00000  0.26236  0.30291  1
 B  B4  1  0.50000  0.76236  0.19709  1
 Li  Li1  1  0.50000  0.16889  0.05801  1
 Li  Li2  1  0.00000  0.00000  0.20747  1
 Li  Li3  1  0.50000  0.83111  0.94199  1
 Li  Li4  1  0.00000  0.66889  0.44199  1
 Li  Li5  1  0.00000  0.33111  0.55801  1
 Li  Li6  1  0.50000  0.50000  0.70747  1
 Li  Li7  1  0.00000  -0.00000  0.79253  1
 Li  Li8  1  0.50000  0.50000  0.29253  1
 Ni  Ni1  1  0.00000  0.50000  0.00000  1
 Ni  Ni2  1  0.50000  0.00000  0.50000  1
 O  O1  1  0.00000  0.41759  0.36825  1
 O  O2  1  0.50000  0.74740  0.34592  1
 O  O3  1  0.00000  0.11122  0.38834  1
 O  O4  1  0.00000  0.88878  0.61166  1
 O  O5  1  0.50000  0.25260  0.65408  1
 O  O6  1  0.00000  0.75260  0.84592  1
 O  O7  1  0.50000  0.08241  0.86825  1
 O  O8  1  0.50000  0.38878  0.88834  1
 O  O9  1  0.00000  0.24740  0.15408  1
 O  O10  1  0.50000  0.91759  0.13175  1
 O  O11  1  0.00000  0.58241  0.63175  1
 O  O12  1  0.50000  0.61122  0.11166  1
