CIF file written using JARVIS-Tools package.
data_YCrO4
_symmetry_space_group_name_H-M  'I4_1/amd'
_cell_length_a       5.94859
_cell_length_b       5.94859
_cell_length_c       5.94859
_cell_angle_alpha    106.207
_cell_angle_beta     106.207
_cell_angle_gamma    116.217

_symmetry_Int_Tables_number  141
_chemical_formula_structural  YCrO4
_chemical_formula_sum  Y2Cr2O8
_cell_volume  160.33548752609488
_cell_formula_units_Z  2
loop_
  _symmetry_equiv_pos_site_id
 _symmetry_equiv_pos_as_xyz
 1  'x, y, z'
loop_
 _atom_site_type_symbol
 _atom_site_label
 _atom_site_symmetry_multiplicity
 _atom_site_fract_x
 _atom_site_fract_y
 _atom_site_fract_z
 _atom_site_fract_occupancy
 Cr  Cr1  1  0.37500  0.62500  0.75000  1
 Cr  Cr2  1  0.62500  0.37500  0.25000  1
 O  O1  1  0.79931  0.73303  0.43372  1
 O  O2  1  0.36560  0.79931  0.56628  1
 O  O3  1  0.73303  0.79931  0.93372  1
 O  O4  1  0.79931  0.36560  0.06628  1
 O  O5  1  0.63440  0.20069  0.43372  1
 O  O6  1  0.20069  0.26697  0.56628  1
 O  O7  1  0.20069  0.63440  0.93372  1
 O  O8  1  0.26697  0.20069  0.06628  1
 Y  Y1  1  0.12500  0.87500  0.25000  1
 Y  Y2  1  0.87500  0.12500  0.75000  1
