CIF file written using JARVIS-Tools package.
data_ZnTe
_symmetry_space_group_name_H-M  'P6_422'
_cell_length_a       4.33492
_cell_length_b       4.33492
_cell_length_c       9.80185
_cell_angle_alpha    90
_cell_angle_beta     90
_cell_angle_gamma    120

_symmetry_Int_Tables_number  181
_chemical_formula_structural  ZnTe
_chemical_formula_sum  Zn3Te3
_cell_volume  159.51429095609967
_cell_formula_units_Z  3
loop_
  _symmetry_equiv_pos_site_id
 _symmetry_equiv_pos_as_xyz
 1  'x, y, z'
loop_
 _atom_site_type_symbol
 _atom_site_label
 _atom_site_symmetry_multiplicity
 _atom_site_fract_x
 _atom_site_fract_y
 _atom_site_fract_z
 _atom_site_fract_occupancy
 Te  Te1  1  -0.00000  0.50006  0.16667  1
 Te  Te2  1  0.50006  -0.00000  0.83333  1
 Te  Te3  1  0.49994  0.49994  0.50000  1
 Zn  Zn1  1  0.00000  0.50022  0.66667  1
 Zn  Zn2  1  0.50022  0.00000  0.33333  1
 Zn  Zn3  1  0.49978  0.49978  0.00000  1
