CIF file written using JARVIS-Tools package.
data_ZnSb4O8
_symmetry_space_group_name_H-M  'Cm'
_cell_length_a       3.28212
_cell_length_b       7.07838
_cell_length_c       9.43685
_cell_angle_alpha    65.0852
_cell_angle_beta     99.9691
_cell_angle_gamma    89.9669

_symmetry_Int_Tables_number  8
_chemical_formula_structural  ZnSb4O8
_chemical_formula_sum  ZnSb4O8
_cell_volume  195.1678226918946
_cell_formula_units_Z  1
loop_
  _symmetry_equiv_pos_site_id
 _symmetry_equiv_pos_as_xyz
 1  'x, y, z'
loop_
 _atom_site_type_symbol
 _atom_site_label
 _atom_site_symmetry_multiplicity
 _atom_site_fract_x
 _atom_site_fract_y
 _atom_site_fract_z
 _atom_site_fract_occupancy
 O  O1  1  0.21111  0.31168  0.27105  1
 O  O2  1  0.69112  0.65957  0.23190  1
 O  O3  1  0.45484  0.25061  0.75846  1
 O  O4  1  0.91763  0.60867  0.68436  1
 O  O5  1  0.76556  -0.03962  0.37945  1
 O  O6  1  0.04561  0.90355  0.94032  1
 O  O7  1  0.37205  0.96618  0.59341  1
 O  O8  1  0.57033  0.56628  -0.01087  1
 Sb  Sb1  1  0.32606  0.74147  0.50011  1
 Sb  Sb2  1  0.00772  0.31814  0.86500  1
 Sb  Sb3  1  0.13347  0.61503  0.11602  1
 Sb  Sb4  1  0.79823  0.19742  0.44574  1
 Zn  Zn1  1  0.48389  0.91038  0.81625  1
