CIF file written using JARVIS-Tools package.
data_Te2Mo3S4
_symmetry_space_group_name_H-M  'P-6m2'
_cell_length_a       3.30772
_cell_length_b       3.30773
_cell_length_c       29.1013
_cell_angle_alpha    90
_cell_angle_beta     90
_cell_angle_gamma    120

_symmetry_Int_Tables_number  187
_chemical_formula_structural  Te2Mo3S4
_chemical_formula_sum  Te2Mo3S4
_cell_volume  275.7416633593343
_cell_formula_units_Z  1
loop_
  _symmetry_equiv_pos_site_id
 _symmetry_equiv_pos_as_xyz
 1  'x, y, z'
loop_
 _atom_site_type_symbol
 _atom_site_label
 _atom_site_symmetry_multiplicity
 _atom_site_fract_x
 _atom_site_fract_y
 _atom_site_fract_z
 _atom_site_fract_occupancy
 Mo  Mo1  1  0.33337  0.66675  0.11497  1
 Mo  Mo2  1  0.33337  0.66675  0.57899  1
 Mo  Mo3  1  0.66656  0.33311  0.34698  1
 S  S1  1  0.66672  0.33343  0.06247  1
 S  S2  1  0.66671  0.33343  0.52642  1
 S  S3  1  0.66671  0.33343  0.16755  1
 S  S4  1  0.66672  0.33343  0.63150  1
 Te  Te1  1  0.33322  0.66644  0.41298  1
 Te  Te2  1  0.33322  0.66644  0.28098  1
