CIF file written using JARVIS-Tools package.
data_Mg2BiAsO6
_symmetry_space_group_name_H-M  'Cmcm'
_cell_length_a       5.45729
_cell_length_b       7.33901
_cell_length_c       7.33901
_cell_angle_alpha    114.444
_cell_angle_beta     90
_cell_angle_gamma    90

_symmetry_Int_Tables_number  63
_chemical_formula_structural  Mg2BiAsO6
_chemical_formula_sum  Mg4Bi2As2O2
_cell_volume  267.5889997196205
_cell_formula_units_Z  2
loop_
  _symmetry_equiv_pos_site_id
 _symmetry_equiv_pos_as_xyz
 1  'x, y, z'
loop_
 _atom_site_type_symbol
 _atom_site_label
 _atom_site_symmetry_multiplicity
 _atom_site_fract_x
 _atom_site_fract_y
 _atom_site_fract_z
 _atom_site_fract_occupancy
 As  As1  1  0.25000  0.80242  0.19758  1
 As  As2  1  0.75000  0.19758  0.80242  1
 Bi  Bi1  1  0.25000  0.40499  0.59501  1
 Bi  Bi2  1  0.75000  0.59501  0.40499  1
 Mg  Mg1  1  0.25000  0.28625  0.10445  1
 Mg  Mg2  1  0.75000  0.10445  0.28625  1
 Mg  Mg3  1  0.25000  0.89555  0.71375  1
 Mg  Mg4  1  0.75000  0.71375  0.89555  1
 O  O1  1  0.00735  0.11643  0.88357  1
 O  O2  1  0.99265  0.88357  0.11643  1
 O  O3  1  0.00000  0.67096  0.67096  1
 O  O4  1  0.25000  0.90659  0.45119  1
 O  O5  1  0.25000  0.54881  0.09341  1
 O  O6  1  0.50000  0.32904  0.32904  1
 O  O7  1  0.50000  0.67096  0.67096  1
 O  O8  1  0.75000  0.09341  0.54881  1
 O  O9  1  0.50735  0.88357  0.11643  1
 O  O10  1  0.49265  0.11643  0.88357  1
 O  O11  1  0.00000  0.32904  0.32904  1
 O  O12  1  0.75000  0.45119  0.90659  1
