CIF file written using JARVIS-Tools package.
data_TaBi4ClO8
_symmetry_space_group_name_H-M  'P4/mmm'
_cell_length_a       3.90822
_cell_length_b       3.90822
_cell_length_c       14.113
_cell_angle_alpha    90
_cell_angle_beta     90
_cell_angle_gamma    90

_symmetry_Int_Tables_number  123
_chemical_formula_structural  TaBi4ClO8
_chemical_formula_sum  TaBi4ClO8
_cell_volume  215.56344975753774
_cell_formula_units_Z  1
loop_
  _symmetry_equiv_pos_site_id
 _symmetry_equiv_pos_as_xyz
 1  'x, y, z'
loop_
 _atom_site_type_symbol
 _atom_site_label
 _atom_site_symmetry_multiplicity
 _atom_site_fract_x
 _atom_site_fract_y
 _atom_site_fract_z
 _atom_site_fract_occupancy
 Bi  Bi1  1  0.50000  0.50000  0.18197  1
 Bi  Bi2  1  0.50000  0.50000  0.81803  1
 Bi  Bi3  1  0.00000  0.00000  0.63881  1
 Bi  Bi4  1  0.00000  0.00000  0.36119  1
 Cl  Cl1  1  0.50000  0.50000  0.50000  1
 O  O1  1  0.00000  0.00000  0.14255  1
 O  O2  1  0.00000  0.50000  0.28360  1
 O  O3  1  0.50000  0.00000  0.00000  1
 O  O4  1  0.00000  0.50000  0.00000  1
 O  O5  1  0.50000  0.00000  0.28360  1
 O  O6  1  0.00000  0.50000  0.71640  1
 O  O7  1  0.50000  0.00000  0.71640  1
 O  O8  1  0.00000  0.00000  0.85745  1
 Ta  Ta1  1  0.00000  0.00000  0.00000  1
