CIF file written using JARVIS-Tools package.
data_SmIO
_symmetry_space_group_name_H-M  'P4/nmm'
_cell_length_a       4.0218
_cell_length_b       4.0218
_cell_length_c       9.24102
_cell_angle_alpha    90
_cell_angle_beta     90
_cell_angle_gamma    90

_symmetry_Int_Tables_number  129
_chemical_formula_structural  SmIO
_chemical_formula_sum  Sm2I2O2
_cell_volume  149.47246726242682
_cell_formula_units_Z  2
loop_
  _symmetry_equiv_pos_site_id
 _symmetry_equiv_pos_as_xyz
 1  'x, y, z'
loop_
 _atom_site_type_symbol
 _atom_site_label
 _atom_site_symmetry_multiplicity
 _atom_site_fract_x
 _atom_site_fract_y
 _atom_site_fract_z
 _atom_site_fract_occupancy
 I  I1  1  0.00000  0.50000  0.67207  1
 I  I2  1  0.50000  0.00000  0.32793  1
 O  O1  1  0.00000  0.00000  0.00000  1
 O  O2  1  0.50000  0.50000  0.00000  1
 Sm  Sm1  1  0.00000  0.50000  0.12418  1
 Sm  Sm2  1  0.50000  0.00000  0.87582  1
