CIF file written using JARVIS-Tools package.
data_Dy2Te5O13
_symmetry_space_group_name_H-M  'P-1'
_cell_length_a       6.97262
_cell_length_b       8.6355
_cell_length_c       10.557
_cell_angle_alpha    89.3113
_cell_angle_beta     87.0534
_cell_angle_gamma    75.0941

_symmetry_Int_Tables_number  2
_chemical_formula_structural  Dy2Te5O13
_chemical_formula_sum  Dy4Te0O26
_cell_volume  613.4555858111122
_cell_formula_units_Z  2
loop_
  _symmetry_equiv_pos_site_id
 _symmetry_equiv_pos_as_xyz
 1  'x, y, z'
loop_
 _atom_site_type_symbol
 _atom_site_label
 _atom_site_symmetry_multiplicity
 _atom_site_fract_x
 _atom_site_fract_y
 _atom_site_fract_z
 _atom_site_fract_occupancy
 Dy  Dy1  1  0.55420  0.52926  0.17964  1
 Dy  Dy2  1  0.99786  0.73505  0.23784  1
 Dy  Dy3  1  0.00214  0.26495  0.76216  1
 Dy  Dy4  1  0.44580  0.47074  0.82036  1
 O  O1  1  0.33833  0.51208  0.61466  1
 O  O2  1  0.23880  0.49428  0.18675  1
 O  O3  1  0.05977  0.01804  0.68560  1
 O  O4  1  0.32854  0.74323  0.77016  1
 O  O5  1  0.46639  0.67442  0.99707  1
 O  O6  1  0.68758  0.26288  0.71022  1
 O  O7  1  0.05895  0.82034  0.03387  1
 O  O8  1  0.76120  0.50572  0.81325  1
 O  O9  1  0.94105  0.17966  0.96613  1
 O  O10  1  0.31242  0.73712  0.28978  1
 O  O11  1  0.66167  0.48792  0.38534  1
 O  O12  1  0.46177  0.18974  0.51295  1
 O  O13  1  0.87917  0.51219  0.10817  1
 O  O14  1  0.12083  0.48781  0.89183  1
 O  O15  1  0.65598  0.00938  0.87514  1
 O  O16  1  0.66738  0.77985  0.22334  1
 O  O17  1  0.67146  0.25677  0.22984  1
 O  O18  1  0.94023  0.98196  0.31440  1
 O  O19  1  0.06629  0.26762  0.28195  1
 O  O20  1  0.95542  0.65094  0.43768  1
 O  O21  1  0.34402  0.99062  0.12486  1
 O  O22  1  0.53361  0.32558  0.00293  1
 O  O23  1  0.33262  0.22015  0.77666  1
 O  O24  1  0.04458  0.34906  0.56232  1
 O  O25  1  0.93371  0.73238  0.71805  1
 O  O26  1  0.53823  0.81026  0.48705  1
 Te  Te1  1  0.43300  0.90866  0.30499  1
 Te  Te2  1  0.27373  0.39329  0.47925  1
 Te  Te3  1  0.72627  0.60671  0.52075  1
 Te  Te4  1  0.70936  0.11728  0.02932  1
 Te  Te5  1  0.84339  0.19673  0.36699  1
 Te  Te6  1  0.56700  0.09134  0.69501  1
 Te  Te7  1  0.12515  0.34547  0.10711  1
 Te  Te8  1  0.15661  0.80327  0.63301  1
 Te  Te9  1  0.87485  0.65453  0.89289  1
 Te  Te10  1  0.29064  0.88272  0.97068  1
