CIF file written using JARVIS-Tools package.
data_GaBiO3
_symmetry_space_group_name_H-M  'Pcca'
_cell_length_a       5.20937
_cell_length_b       5.48985
_cell_length_c       9.96719
_cell_angle_alpha    90
_cell_angle_beta     90
_cell_angle_gamma    90

_symmetry_Int_Tables_number  54
_chemical_formula_structural  GaBiO3
_chemical_formula_sum  Ga4Bi4O2
_cell_volume  285.04822735965837
_cell_formula_units_Z  4
loop_
  _symmetry_equiv_pos_site_id
 _symmetry_equiv_pos_as_xyz
 1  'x, y, z'
loop_
 _atom_site_type_symbol
 _atom_site_label
 _atom_site_symmetry_multiplicity
 _atom_site_fract_x
 _atom_site_fract_y
 _atom_site_fract_z
 _atom_site_fract_occupancy
 Bi  Bi1  1  0.00000  0.75000  0.61331  1
 Bi  Bi2  1  0.00000  0.25000  0.38669  1
 Bi  Bi3  1  0.00000  0.75000  0.11331  1
 Bi  Bi4  1  0.00000  0.25000  0.88669  1
 Ga  Ga1  1  0.50000  0.25000  0.14241  1
 Ga  Ga2  1  0.50000  0.25000  0.64241  1
 Ga  Ga3  1  0.50000  0.75000  0.35759  1
 Ga  Ga4  1  0.50000  0.75000  0.85759  1
 O  O1  1  0.23096  0.59496  0.44568  1
 O  O2  1  0.76904  0.59496  0.94568  1
 O  O3  1  0.76904  0.09496  0.05432  1
 O  O4  1  0.23096  0.90504  0.94568  1
 O  O5  1  0.76904  0.40504  0.55432  1
 O  O6  1  0.76904  0.90504  0.44568  1
 O  O7  1  0.64717  0.00000  0.75000  1
 O  O8  1  0.23096  0.09496  0.55432  1
 O  O9  1  0.23096  0.40504  0.05432  1
 O  O10  1  0.35283  0.00000  0.25000  1
 O  O11  1  0.64717  0.50000  0.25000  1
 O  O12  1  0.35283  0.50000  0.75000  1
