CIF file written using JARVIS-Tools package.
data_Tm2TeO2
_symmetry_space_group_name_H-M  'P-3m1'
_cell_length_a       3.83828
_cell_length_b       3.83826
_cell_length_c       7.11333
_cell_angle_alpha    89.9999
_cell_angle_beta     90
_cell_angle_gamma    120

_symmetry_Int_Tables_number  164
_chemical_formula_structural  Tm2TeO2
_chemical_formula_sum  Tm2TeO2
_cell_volume  90.75562338215798
_cell_formula_units_Z  1
loop_
  _symmetry_equiv_pos_site_id
 _symmetry_equiv_pos_as_xyz
 1  'x, y, z'
loop_
 _atom_site_type_symbol
 _atom_site_label
 _atom_site_symmetry_multiplicity
 _atom_site_fract_x
 _atom_site_fract_y
 _atom_site_fract_z
 _atom_site_fract_occupancy
 O  O1  1  0.33328  0.66667  0.61955  1
 O  O2  1  0.66661  0.33333  0.38045  1
 Te  Te1  1  0.00001  1.00000  -0.00000  1
 Tm  Tm1  1  0.33329  0.66667  0.30588  1
 Tm  Tm2  1  0.66662  0.33333  0.69412  1
