CIF file written using JARVIS-Tools package.
data_TePdI2
_symmetry_space_group_name_H-M  'P-1'
_cell_length_a       4.0707
_cell_length_b       7.04955
_cell_length_c       9.46136
_cell_angle_alpha    67.4678
_cell_angle_beta     89.8601
_cell_angle_gamma    89.9374

_symmetry_Int_Tables_number  2
_chemical_formula_structural  TePdI2
_chemical_formula_sum  Te2Pd2I4
_cell_volume  250.78189434232695
_cell_formula_units_Z  2
loop_
  _symmetry_equiv_pos_site_id
 _symmetry_equiv_pos_as_xyz
 1  'x, y, z'
loop_
 _atom_site_type_symbol
 _atom_site_label
 _atom_site_symmetry_multiplicity
 _atom_site_fract_x
 _atom_site_fract_y
 _atom_site_fract_z
 _atom_site_fract_occupancy
 I  I1  1  0.25178  0.04012  0.81299  1
 I  I2  1  0.24961  0.71047  0.57895  1
 I  I3  1  0.74822  0.95988  0.18701  1
 I  I4  1  0.75039  0.28953  0.42105  1
 Pd  Pd1  1  0.25013  0.24196  0.01727  1
 Pd  Pd2  1  0.74987  0.75804  0.98273  1
 Te  Te1  1  0.24829  0.51057  0.14961  1
 Te  Te2  1  0.75171  0.48943  0.85039  1
