CIF file written using JARVIS-Tools package.
data_Mo2WSe2S4
_symmetry_space_group_name_H-M  'Cm'
_cell_length_a       3.23915
_cell_length_b       3.23704
_cell_length_c       19.4729
_cell_angle_alpha    99.4186
_cell_angle_beta     90
_cell_angle_gamma    120.022

_symmetry_Int_Tables_number  8
_chemical_formula_structural  Mo2WSe2S4
_chemical_formula_sum  Mo2WSe2S4
_cell_volume  173.59798087501042
_cell_formula_units_Z  1
loop_
  _symmetry_equiv_pos_site_id
 _symmetry_equiv_pos_as_xyz
 1  'x, y, z'
loop_
 _atom_site_type_symbol
 _atom_site_label
 _atom_site_symmetry_multiplicity
 _atom_site_fract_x
 _atom_site_fract_y
 _atom_site_fract_z
 _atom_site_fract_occupancy
 Mo  Mo1  1  0.30893  0.61786  0.01654  1
 Mo  Mo2  1  0.44815  0.89630  0.68156  1
 S  S1  1  0.29670  0.59340  0.42454  1
 S  S2  1  0.58902  0.17804  0.93539  1
 S  S3  1  0.69580  0.39161  0.09761  1
 S  S4  1  0.18882  0.37764  0.26126  1
 Se  Se1  1  0.72307  0.44615  0.59236  1
 Se  Se2  1  0.83992  0.67983  0.77073  1
 W  W1  1  0.57618  0.15236  0.34285  1
