CIF file written using JARVIS-Tools package.
data_ZrScCd2
_symmetry_space_group_name_H-M  'Immm'
_cell_length_a       12.1958
_cell_length_b       6.82125
_cell_length_c       6.82125
_cell_angle_alpha    25.1488
_cell_angle_beta     26.6257
_cell_angle_gamma    26.6257

_symmetry_Int_Tables_number  71
_chemical_formula_structural  ZrScCd2
_chemical_formula_sum  ZrScCd2
_cell_volume  96.78881126244346
_cell_formula_units_Z  1
loop_
  _symmetry_equiv_pos_site_id
 _symmetry_equiv_pos_as_xyz
 1  'x, y, z'
loop_
 _atom_site_type_symbol
 _atom_site_label
 _atom_site_symmetry_multiplicity
 _atom_site_fract_x
 _atom_site_fract_y
 _atom_site_fract_z
 _atom_site_fract_occupancy
 Cd  Cd1  1  0.75130  0.00000  -0.00000  1
 Cd  Cd2  1  0.24870  -0.00000  0.00000  1
 Sc  Sc1  1  0.00000  0.00000  0.00000  1
 Zr  Zr1  1  0.50000  0.00000  0.00000  1
