CIF file written using JARVIS-Tools package.
data_CrAgS2
_symmetry_space_group_name_H-M  'R3m'
_cell_length_a       3.07172
_cell_length_b       3.07172
_cell_length_c       8.28375
_cell_angle_alpha    79.3152
_cell_angle_beta     79.3152
_cell_angle_gamma    60

_symmetry_Int_Tables_number  160
_chemical_formula_structural  CrAgS2
_chemical_formula_sum  CrAgS2
_cell_volume  66.11976463010694
_cell_formula_units_Z  1
loop_
  _symmetry_equiv_pos_site_id
 _symmetry_equiv_pos_as_xyz
 1  'x, y, z'
loop_
 _atom_site_type_symbol
 _atom_site_label
 _atom_site_symmetry_multiplicity
 _atom_site_fract_x
 _atom_site_fract_y
 _atom_site_fract_z
 _atom_site_fract_occupancy
 Ag  Ag1  1  0.97727  0.97727  0.06819  1
 Cr  Cr1  1  0.14361  0.14361  0.56917  1
 S  S1  1  0.86969  0.86969  0.39094  1
 S  S2  1  0.74943  0.74943  0.75170  1
