CIF file written using JARVIS-Tools package.
data_AlH3O3
_symmetry_space_group_name_H-M  'P1'
_cell_length_a       4.91449
_cell_length_b       5.10484
_cell_length_c       5.16381
_cell_angle_alpha    104.358
_cell_angle_beta     98.3442
_cell_angle_gamma    117.803

_symmetry_Int_Tables_number  1
_chemical_formula_structural  AlH3O3
_chemical_formula_sum  Al2H6O6
_cell_volume  105.74734214326753
_cell_formula_units_Z  2
loop_
  _symmetry_equiv_pos_site_id
 _symmetry_equiv_pos_as_xyz
 1  'x, y, z'
loop_
 _atom_site_type_symbol
 _atom_site_label
 _atom_site_symmetry_multiplicity
 _atom_site_fract_x
 _atom_site_fract_y
 _atom_site_fract_z
 _atom_site_fract_occupancy
 Al  Al1  1  0.84813  0.68921  0.00144  1
 Al  Al2  1  0.17085  0.33110  -0.00052  1
 H  H1  1  0.51932  0.88899  0.22109  1
 H  H2  1  0.29444  0.18228  0.42484  1
 H  H3  1  0.07979  0.55143  0.60831  1
 H  H4  1  0.74838  0.32186  0.23960  1
 H  H5  1  0.47323  0.10849  0.77166  1
 H  H6  1  0.72049  0.84196  0.58703  1
 O  O1  1  0.43972  0.28627  0.78412  1
 O  O2  1  0.95594  0.48013  0.22997  1
 O  O3  1  0.06665  0.54673  0.79553  1
 O  O4  1  0.23666  0.09856  0.21584  1
 O  O5  1  0.57758  0.72995  0.22588  1
 O  O6  1  0.79393  0.92604  0.79641  1
