CIF file written using JARVIS-Tools package.
data_Sm2Mg
_symmetry_space_group_name_H-M  'Cmcm'
_cell_length_a       3.73851
_cell_length_b       8.81334
_cell_length_c       5.53686
_cell_angle_alpha    90
_cell_angle_beta     90
_cell_angle_gamma    77.7549

_symmetry_Int_Tables_number  63
_chemical_formula_structural  Sm2Mg
_chemical_formula_sum  Sm4Mg2
_cell_volume  178.282040900203
_cell_formula_units_Z  2
loop_
  _symmetry_equiv_pos_site_id
 _symmetry_equiv_pos_as_xyz
 1  'x, y, z'
loop_
 _atom_site_type_symbol
 _atom_site_label
 _atom_site_symmetry_multiplicity
 _atom_site_fract_x
 _atom_site_fract_y
 _atom_site_fract_z
 _atom_site_fract_occupancy
 Mg  Mg1  1  0.32123  0.35754  0.00000  1
 Mg  Mg2  1  0.45654  0.08691  0.50000  1
 Sm  Sm1  1  0.97926  0.04149  0.00000  1
 Sm  Sm2  1  0.66061  0.67877  0.00000  1
 Sm  Sm3  1  0.79852  0.40296  0.50000  1
 Sm  Sm4  1  0.11716  0.76567  0.50000  1
