CIF file written using JARVIS-Tools package.
data_IF7
_symmetry_space_group_name_H-M  'Aea2'
_cell_length_a       5.25716
_cell_length_b       5.25716
_cell_length_c       8.8644
_cell_angle_alpha    90
_cell_angle_beta     90
_cell_angle_gamma    110.347

_symmetry_Int_Tables_number  41
_chemical_formula_structural  IF7
_chemical_formula_sum  I2F4
_cell_volume  229.70488900336085
_cell_formula_units_Z  2
loop_
  _symmetry_equiv_pos_site_id
 _symmetry_equiv_pos_as_xyz
 1  'x, y, z'
loop_
 _atom_site_type_symbol
 _atom_site_label
 _atom_site_symmetry_multiplicity
 _atom_site_fract_x
 _atom_site_fract_y
 _atom_site_fract_z
 _atom_site_fract_occupancy
 F  F1  1  0.90632  0.54190  0.89571  1
 F  F2  1  0.79650  0.95732  0.39920  1
 F  F3  1  0.29650  0.45732  0.10080  1
 F  F4  1  0.26891  0.01867  0.33020  1
 F  F5  1  0.01867  0.26891  0.66980  1
 F  F6  1  0.51867  0.76891  0.83020  1
 F  F7  1  0.76891  0.51867  0.16980  1
 F  F8  1  0.04190  0.40632  0.39571  1
 F  F9  1  0.94929  0.94929  0.00000  1
 F  F10  1  0.45732  0.29650  0.89920  1
 F  F11  1  0.44929  0.44929  0.50000  1
 F  F12  1  0.40632  0.04190  0.60429  1
 F  F13  1  0.54190  0.90632  0.10429  1
 F  F14  1  0.95732  0.79650  0.60080  1
 I  I1  1  0.63290  0.63290  0.00000  1
 I  I2  1  0.13290  0.13290  0.50000  1
