CIF file written using JARVIS-Tools package.
data_TiN3Cl3
_symmetry_space_group_name_H-M  'P-1'
_cell_length_a       5.80923
_cell_length_b       6.5745
_cell_length_c       7.47686
_cell_angle_alpha    88.5205
_cell_angle_beta     83.1221
_cell_angle_gamma    78.8964

_symmetry_Int_Tables_number  2
_chemical_formula_structural  TiN3Cl3
_chemical_formula_sum  Ti2N6Cl6
_cell_volume  278.198704455092
_cell_formula_units_Z  2
loop_
  _symmetry_equiv_pos_site_id
 _symmetry_equiv_pos_as_xyz
 1  'x, y, z'
loop_
 _atom_site_type_symbol
 _atom_site_label
 _atom_site_symmetry_multiplicity
 _atom_site_fract_x
 _atom_site_fract_y
 _atom_site_fract_z
 _atom_site_fract_occupancy
 Cl  Cl1  1  0.38124  0.35393  0.74524  1
 Cl  Cl2  1  0.61876  0.64607  0.25476  1
 Cl  Cl3  1  0.89125  0.23551  0.96153  1
 Cl  Cl4  1  0.10875  0.76449  0.03847  1
 Cl  Cl5  1  0.23602  0.91330  0.61305  1
 Cl  Cl6  1  0.76398  0.08670  0.38695  1
 N  N1  1  0.38908  0.11860  0.12322  1
 N  N2  1  0.71480  0.74794  0.76706  1
 N  N3  1  0.81283  0.62484  0.66576  1
 N  N4  1  0.61092  0.88140  0.87678  1
 N  N5  1  0.18717  0.37516  0.33424  1
 N  N6  1  0.28520  0.25206  0.23294  1
 Ti  Ti1  1  0.71928  0.93100  0.13666  1
 Ti  Ti2  1  0.28072  0.06900  0.86334  1
