CIF file written using JARVIS-Tools package.
data_MnC2O6
_symmetry_space_group_name_H-M  'R-3'
_cell_length_a       4.62426
_cell_length_b       5.62814
_cell_length_c       4.62426
_cell_angle_alpha    65.7439
_cell_angle_beta     120
_cell_angle_gamma    114.256

_symmetry_Int_Tables_number  148
_chemical_formula_structural  MnC2O6
_chemical_formula_sum  MnC2O6
_cell_volume  91.75349427626944
_cell_formula_units_Z  1
loop_
  _symmetry_equiv_pos_site_id
 _symmetry_equiv_pos_as_xyz
 1  'x, y, z'
loop_
 _atom_site_type_symbol
 _atom_site_label
 _atom_site_symmetry_multiplicity
 _atom_site_fract_x
 _atom_site_fract_y
 _atom_site_fract_z
 _atom_site_fract_occupancy
 C  C1  1  0.23744  0.71231  0.76256  1
 C  C2  1  0.76256  0.28769  0.23744  1
 Mn  Mn1  1  0.50000  0.50000  0.50000  1
 O  O1  1  0.05881  0.28512  0.27836  1
 O  O2  1  0.49532  0.71488  0.05881  1
 O  O3  1  0.27836  0.71488  0.50468  1
 O  O4  1  0.72164  0.28512  0.49532  1
 O  O5  1  0.50468  0.28512  0.94119  1
 O  O6  1  0.94119  0.71488  0.72164  1
