CIF file written using JARVIS-Tools package.
data_BrClO
_symmetry_space_group_name_H-M  'R-3'
_cell_length_a       9.07771
_cell_length_b       9.07771
_cell_length_c       9.07771
_cell_angle_alpha    115.152
_cell_angle_beta     115.152
_cell_angle_gamma    115.152

_symmetry_Int_Tables_number  148
_chemical_formula_structural  BrClO
_chemical_formula_sum  Br6Cl6O6
_cell_volume  412.78438635319725
_cell_formula_units_Z  6
loop_
  _symmetry_equiv_pos_site_id
 _symmetry_equiv_pos_as_xyz
 1  'x, y, z'
loop_
 _atom_site_type_symbol
 _atom_site_label
 _atom_site_symmetry_multiplicity
 _atom_site_fract_x
 _atom_site_fract_y
 _atom_site_fract_z
 _atom_site_fract_occupancy
 Br  Br1  1  0.25466  0.72847  0.57563  1
 Br  Br2  1  0.27153  0.42437  0.74534  1
 Br  Br3  1  0.42437  0.74534  0.27153  1
 Br  Br4  1  0.57563  0.25466  0.72847  1
 Br  Br5  1  0.72847  0.57563  0.25466  1
 Br  Br6  1  0.74534  0.27153  0.42437  1
 Cl  Cl1  1  0.07341  0.12819  0.35768  1
 Cl  Cl2  1  0.64232  0.92659  0.87181  1
 Cl  Cl3  1  0.12819  0.35768  0.07341  1
 Cl  Cl4  1  0.87181  0.64232  0.92659  1
 Cl  Cl5  1  0.35768  0.07341  0.12819  1
 Cl  Cl6  1  0.92659  0.87181  0.64232  1
 O  O1  1  0.15855  0.53685  0.70675  1
 O  O2  1  0.29325  0.84145  0.46315  1
 O  O3  1  0.46315  0.29325  0.84145  1
 O  O4  1  0.53685  0.70675  0.15855  1
 O  O5  1  0.70675  0.15855  0.53685  1
 O  O6  1  0.84145  0.46315  0.29325  1
