CIF file written using JARVIS-Tools package.
data_USiRh
_symmetry_space_group_name_H-M  'Pnma'
_cell_length_a       3.88433
_cell_length_b       7.10062
_cell_length_c       7.45375
_cell_angle_alpha    90
_cell_angle_beta     90
_cell_angle_gamma    90

_symmetry_Int_Tables_number  62
_chemical_formula_structural  USiRh
_chemical_formula_sum  U4Si4Rh4
_cell_volume  205.58300674489934
_cell_formula_units_Z  4
loop_
  _symmetry_equiv_pos_site_id
 _symmetry_equiv_pos_as_xyz
 1  'x, y, z'
loop_
 _atom_site_type_symbol
 _atom_site_label
 _atom_site_symmetry_multiplicity
 _atom_site_fract_x
 _atom_site_fract_y
 _atom_site_fract_z
 _atom_site_fract_occupancy
 Rh  Rh1  1  0.25000  0.56731  0.13127  1
 Rh  Rh2  1  0.75000  0.43269  0.86873  1
 Rh  Rh3  1  0.25000  0.93269  0.63127  1
 Rh  Rh4  1  0.75000  0.06731  0.36873  1
 Si  Si1  1  0.75000  0.12732  0.69873  1
 Si  Si2  1  0.25000  0.87268  0.30127  1
 Si  Si3  1  0.75000  0.37268  0.19873  1
 Si  Si4  1  0.25000  0.62732  0.80127  1
 U  U1  1  0.75000  0.63511  0.49927  1
 U  U2  1  0.25000  0.36489  0.50073  1
 U  U3  1  0.75000  0.86489  0.99927  1
 U  U4  1  0.25000  0.13511  0.00073  1
