CIF file written using JARVIS-Tools package.
data_DyCuSeO
_symmetry_space_group_name_H-M  'P4/nmm'
_cell_length_a       3.87919
_cell_length_b       3.87919
_cell_length_c       8.77244
_cell_angle_alpha    90
_cell_angle_beta     90
_cell_angle_gamma    90

_symmetry_Int_Tables_number  129
_chemical_formula_structural  DyCuSeO
_chemical_formula_sum  Dy2Cu2Se2O2
_cell_volume  132.0088467993345
_cell_formula_units_Z  2
loop_
  _symmetry_equiv_pos_site_id
 _symmetry_equiv_pos_as_xyz
 1  'x, y, z'
loop_
 _atom_site_type_symbol
 _atom_site_label
 _atom_site_symmetry_multiplicity
 _atom_site_fract_x
 _atom_site_fract_y
 _atom_site_fract_z
 _atom_site_fract_occupancy
 Cu  Cu1  1  0.50000  0.50000  0.50000  1
 Cu  Cu2  1  0.00000  0.00000  0.50000  1
 Dy  Dy1  1  0.50000  0.00000  0.87107  1
 Dy  Dy2  1  0.00000  0.50000  0.12893  1
 O  O1  1  0.00000  0.00000  0.00000  1
 O  O2  1  0.50000  0.50000  0.00000  1
 Se  Se1  1  0.00000  0.50000  0.68594  1
 Se  Se2  1  0.50000  0.00000  0.31406  1
