CIF file written using JARVIS-Tools package.
data_MnCuP
_symmetry_space_group_name_H-M  'Pnma'
_cell_length_a       3.44463
_cell_length_b       5.87884
_cell_length_c       7.1003
_cell_angle_alpha    90
_cell_angle_beta     90
_cell_angle_gamma    90

_symmetry_Int_Tables_number  62
_chemical_formula_structural  MnCuP
_chemical_formula_sum  Mn4Cu4P4
_cell_volume  143.784044041751
_cell_formula_units_Z  4
loop_
  _symmetry_equiv_pos_site_id
 _symmetry_equiv_pos_as_xyz
 1  'x, y, z'
loop_
 _atom_site_type_symbol
 _atom_site_label
 _atom_site_symmetry_multiplicity
 _atom_site_fract_x
 _atom_site_fract_y
 _atom_site_fract_z
 _atom_site_fract_occupancy
 Cu  Cu1  1  0.25000  0.12488  0.56519  1
 Cu  Cu2  1  0.25000  0.62488  0.93481  1
 Cu  Cu3  1  0.75000  0.37512  0.06519  1
 Cu  Cu4  1  0.75000  0.87512  0.43481  1
 Mn  Mn1  1  0.75000  0.94992  0.83803  1
 Mn  Mn2  1  0.25000  0.55008  0.33803  1
 Mn  Mn3  1  0.75000  0.44992  0.66197  1
 Mn  Mn4  1  0.25000  0.05008  0.16197  1
 P  P1  1  0.25000  0.72397  0.62817  1
 P  P2  1  0.25000  0.22397  0.87183  1
 P  P3  1  0.75000  0.27603  0.37183  1
 P  P4  1  0.75000  0.77603  0.12817  1
