CIF file written using JARVIS-Tools package.
data_Y2InCu
_symmetry_space_group_name_H-M  'C2/m'
_cell_length_a       11.4842
_cell_length_b       11.6552
_cell_length_c       11.6552
_cell_angle_alpha    60.9424
_cell_angle_beta     60.6041
_cell_angle_gamma    60.6041

_symmetry_Int_Tables_number  12
_chemical_formula_structural  Y2InCu
_chemical_formula_sum  Y2InCu
_cell_volume  1120.9381504175217
_cell_formula_units_Z  1
loop_
  _symmetry_equiv_pos_site_id
 _symmetry_equiv_pos_as_xyz
 1  'x, y, z'
loop_
 _atom_site_type_symbol
 _atom_site_label
 _atom_site_symmetry_multiplicity
 _atom_site_fract_x
 _atom_site_fract_y
 _atom_site_fract_z
 _atom_site_fract_occupancy
 Cu  Cu1  1  0.00000  0.00000  0.00000  1
 In  In1  1  0.50000  -0.00000  -0.00000  1
 Y  Y1  1  0.75946  0.00007  0.00007  1
 Y  Y2  1  0.24054  0.99993  0.99993  1
