CIF file written using JARVIS-Tools package.
data_ZrFeCl6
_symmetry_space_group_name_H-M  'P-31c'
_cell_length_a       6.22763
_cell_length_b       6.22763
_cell_length_c       11.7136
_cell_angle_alpha    90
_cell_angle_beta     90
_cell_angle_gamma    120

_symmetry_Int_Tables_number  163
_chemical_formula_structural  ZrFeCl6
_chemical_formula_sum  Zr2Fe2Cl2
_cell_volume  393.4282999687259
_cell_formula_units_Z  2
loop_
  _symmetry_equiv_pos_site_id
 _symmetry_equiv_pos_as_xyz
 1  'x, y, z'
loop_
 _atom_site_type_symbol
 _atom_site_label
 _atom_site_symmetry_multiplicity
 _atom_site_fract_x
 _atom_site_fract_y
 _atom_site_fract_z
 _atom_site_fract_occupancy
 Cl  Cl1  1  0.01385  0.33115  0.87136  1
 Cl  Cl2  1  0.31730  0.98615  0.87136  1
 Cl  Cl3  1  0.66885  0.68270  0.87136  1
 Cl  Cl4  1  0.66885  0.98615  0.62864  1
 Cl  Cl5  1  0.68270  0.66885  0.37136  1
 Cl  Cl6  1  0.98615  0.31730  0.37136  1
 Cl  Cl7  1  0.33115  0.01385  0.37136  1
 Cl  Cl8  1  0.33115  0.31730  0.12864  1
 Cl  Cl9  1  0.68270  0.01385  0.12864  1
 Cl  Cl10  1  0.98615  0.66885  0.12864  1
 Cl  Cl11  1  0.31730  0.33115  0.62864  1
 Cl  Cl12  1  0.01385  0.68270  0.62864  1
 Fe  Fe1  1  0.00000  0.00000  0.75000  1
 Fe  Fe2  1  0.00000  0.00000  0.25000  1
 Zr  Zr1  1  0.33333  0.66667  0.75000  1
 Zr  Zr2  1  0.66667  0.33333  0.25000  1
