CIF file written using JARVIS-Tools package.
data_AlH4Se2O8
_symmetry_space_group_name_H-M  'P2_1/c'
_cell_length_a       7.54014
_cell_length_b       6.27674
_cell_length_c       7.22902
_cell_angle_alpha    90
_cell_angle_beta     103.442
_cell_angle_gamma    90

_symmetry_Int_Tables_number  14
_chemical_formula_structural  AlH4Se2O8
_chemical_formula_sum  Al2H8Se4O6
_cell_volume  332.7589469269493
_cell_formula_units_Z  2
loop_
  _symmetry_equiv_pos_site_id
 _symmetry_equiv_pos_as_xyz
 1  'x, y, z'
loop_
 _atom_site_type_symbol
 _atom_site_label
 _atom_site_symmetry_multiplicity
 _atom_site_fract_x
 _atom_site_fract_y
 _atom_site_fract_z
 _atom_site_fract_occupancy
 Al  Al1  1  0.00000  0.00000  0.50000  1
 Al  Al2  1  0.50000  0.50000  0.00000  1
 H  H1  1  0.04696  0.77024  0.22849  1
 H  H2  1  0.45304  0.27024  0.27151  1
 H  H3  1  0.95304  0.22976  0.77151  1
 H  H4  1  0.54696  0.72976  0.72849  1
 H  H5  1  0.27393  0.24237  0.09624  1
 H  H6  1  0.22607  0.74237  0.40376  1
 H  H7  1  0.72607  0.75763  0.90376  1
 H  H8  1  0.77393  0.25763  0.59624  1
 O  O1  1  0.90924  0.23304  0.62942  1
 O  O2  1  0.19783  0.17456  0.46750  1
 O  O3  1  0.54633  0.26864  0.50939  1
 O  O4  1  0.95367  0.76864  0.99061  1
 O  O5  1  0.45367  0.73136  0.49061  1
 O  O6  1  0.59076  0.73304  0.87058  1
 O  O7  1  0.09076  0.76696  0.37058  1
 O  O8  1  0.04633  0.23136  0.00939  1
 O  O9  1  0.14432  0.91004  0.73561  1
 O  O10  1  0.64432  0.58996  0.23561  1
 O  O11  1  0.85568  0.08996  0.26439  1
 O  O12  1  0.80217  0.82544  0.53250  1
 O  O13  1  0.30217  0.67456  0.03250  1
 O  O14  1  0.40924  0.26696  0.12942  1
 O  O15  1  0.35568  0.41004  0.76439  1
 O  O16  1  0.69783  0.32544  0.96750  1
 Se  Se1  1  0.60280  0.81222  0.36046  1
 Se  Se2  1  0.10280  0.68778  0.86046  1
 Se  Se3  1  0.89720  0.31222  0.13954  1
 Se  Se4  1  0.39720  0.18778  0.63954  1
