CIF file written using JARVIS-Tools package.
data_Sc5NCl8
_symmetry_space_group_name_H-M  'C2/m'
_cell_length_a       3.49647
_cell_length_b       9.01632
_cell_length_c       9.43124
_cell_angle_alpha    80.8625
_cell_angle_beta     79.3176
_cell_angle_gamma    78.8197

_symmetry_Int_Tables_number  12
_chemical_formula_structural  Sc5NCl8
_chemical_formula_sum  Sc5NCl8
_cell_volume  284.2881205686357
_cell_formula_units_Z  1
loop_
  _symmetry_equiv_pos_site_id
 _symmetry_equiv_pos_as_xyz
 1  'x, y, z'
loop_
 _atom_site_type_symbol
 _atom_site_label
 _atom_site_symmetry_multiplicity
 _atom_site_fract_x
 _atom_site_fract_y
 _atom_site_fract_z
 _atom_site_fract_occupancy
 Cl  Cl1  1  0.03301  0.17533  0.75866  1
 Cl  Cl2  1  0.96699  0.82467  0.24134  1
 Cl  Cl3  1  0.33098  0.50161  0.83643  1
 Cl  Cl4  1  0.66902  0.49839  0.16357  1
 Cl  Cl5  1  0.70195  0.16325  0.43286  1
 Cl  Cl6  1  0.29805  0.83675  0.56714  1
 Cl  Cl7  1  0.36656  0.16551  0.10137  1
 Cl  Cl8  1  0.63344  0.83449  0.89863  1
 N  N1  1  -0.00000  0.50000  0.50000  1
 Sc  Sc1  1  0.84049  0.64575  0.67327  1
 Sc  Sc2  1  0.15951  0.35425  0.32673  1
 Sc  Sc3  1  0.48675  0.63645  0.39005  1
 Sc  Sc4  1  0.51325  0.36355  0.60995  1
 Sc  Sc5  1  0.00000  0.00000  0.00000  1
