CIF file written using JARVIS-Tools package.
data_P2O5
_symmetry_space_group_name_H-M  'Pmmm'
_cell_length_a       3.09068
_cell_length_b       3.26733
_cell_length_c       5.89409
_cell_angle_alpha    90
_cell_angle_beta     89.9987
_cell_angle_gamma    90

_symmetry_Int_Tables_number  47
_chemical_formula_structural  P2O5
_chemical_formula_sum  P2O5
_cell_volume  59.520093027690635
_cell_formula_units_Z  1
loop_
  _symmetry_equiv_pos_site_id
 _symmetry_equiv_pos_as_xyz
 1  'x, y, z'
loop_
 _atom_site_type_symbol
 _atom_site_label
 _atom_site_symmetry_multiplicity
 _atom_site_fract_x
 _atom_site_fract_y
 _atom_site_fract_z
 _atom_site_fract_occupancy
 O  O1  1  -0.00001  0.00000  0.31021  1
 O  O2  1  0.00000  0.50000  0.00000  1
 O  O3  1  0.00001  0.00000  0.68979  1
 O  O4  1  0.50000  0.50000  0.50000  1
 O  O5  1  0.50000  0.00000  0.00000  1
 P  P1  1  0.00000  0.00000  0.00000  1
 P  P2  1  0.50000  0.00000  0.50000  1
