CIF file written using JARVIS-Tools package.
data_Na6CuO4
_symmetry_space_group_name_H-M  'P4_2/nmc'
_cell_length_a       7.4989
_cell_length_b       7.4989
_cell_length_c       5.29699
_cell_angle_alpha    90
_cell_angle_beta     90
_cell_angle_gamma    90

_symmetry_Int_Tables_number  137
_chemical_formula_structural  Na6CuO4
_chemical_formula_sum  Na2Cu2O8
_cell_volume  297.8684729520886
_cell_formula_units_Z  2
loop_
  _symmetry_equiv_pos_site_id
 _symmetry_equiv_pos_as_xyz
 1  'x, y, z'
loop_
 _atom_site_type_symbol
 _atom_site_label
 _atom_site_symmetry_multiplicity
 _atom_site_fract_x
 _atom_site_fract_y
 _atom_site_fract_z
 _atom_site_fract_occupancy
 Cu  Cu1  1  0.50000  0.50000  0.50000  1
 Cu  Cu2  1  0.00000  0.00000  0.00000  1
 Na  Na1  1  0.21044  0.78956  0.50000  1
 Na  Na2  1  0.78956  0.21044  0.50000  1
 Na  Na3  1  0.50000  0.00000  0.60264  1
 Na  Na4  1  0.50000  0.00000  0.10264  1
 Na  Na5  1  0.21044  0.21044  0.50000  1
 Na  Na6  1  0.78956  0.78956  0.50000  1
 Na  Na7  1  0.71044  0.28956  0.00000  1
 Na  Na8  1  0.28956  0.28956  0.00000  1
 Na  Na9  1  0.00000  0.50000  0.89736  1
 Na  Na10  1  0.00000  0.50000  0.39736  1
 Na  Na11  1  0.28956  0.71044  0.00000  1
 Na  Na12  1  0.71044  0.71044  0.00000  1
 O  O1  1  0.75019  0.50000  0.66405  1
 O  O2  1  0.24981  0.50000  0.66405  1
 O  O3  1  0.50000  0.75019  0.33595  1
 O  O4  1  0.74981  0.00000  0.83595  1
 O  O5  1  0.25019  0.00000  0.83595  1
 O  O6  1  0.50000  0.24981  0.33595  1
 O  O7  1  0.00000  0.25019  0.16405  1
 O  O8  1  0.00000  0.74981  0.16405  1
