CIF file written using JARVIS-Tools package.
data_AsS24I3
_symmetry_space_group_name_H-M  'R3m'
_cell_length_a       14.3931
_cell_length_b       14.3931
_cell_length_c       14.3931
_cell_angle_alpha    119.014
_cell_angle_beta     119.014
_cell_angle_gamma    119.014

_symmetry_Int_Tables_number  160
_chemical_formula_structural  AsS24I3
_chemical_formula_sum  AsS24I3
_cell_volume  766.3771163118387
_cell_formula_units_Z  1
loop_
  _symmetry_equiv_pos_site_id
 _symmetry_equiv_pos_as_xyz
 1  'x, y, z'
loop_
 _atom_site_type_symbol
 _atom_site_label
 _atom_site_symmetry_multiplicity
 _atom_site_fract_x
 _atom_site_fract_y
 _atom_site_fract_z
 _atom_site_fract_occupancy
 As  As1  1  0.29493  0.29493  0.29493  1
 I  I1  1  0.95424  0.95424  0.11619  1
 I  I2  1  0.11619  0.95424  0.95424  1
 I  I3  1  0.95424  0.11619  0.95424  1
 S  S1  1  0.38644  0.63865  0.77441  1
 S  S2  1  0.17682  0.45271  0.45271  1
 S  S3  1  0.89575  0.76178  0.27451  1
 S  S4  1  0.45271  0.45271  0.17682  1
 S  S5  1  0.45271  0.17682  0.45271  1
 S  S6  1  0.77441  0.63865  0.38644  1
 S  S7  1  0.61652  0.01039  0.61652  1
 S  S8  1  0.61652  0.61652  0.01039  1
 S  S9  1  0.01039  0.61652  0.61652  1
 S  S10  1  0.89575  0.27451  0.76178  1
 S  S11  1  0.76178  0.89575  0.27451  1
 S  S12  1  0.27451  0.76178  0.89575  1
 S  S13  1  0.27451  0.89575  0.76178  1
 S  S14  1  0.63865  0.38644  0.77441  1
 S  S15  1  0.63792  0.09979  0.44548  1
 S  S16  1  0.44548  0.63792  0.09979  1
 S  S17  1  0.09979  0.44548  0.63792  1
 S  S18  1  0.09979  0.63792  0.44548  1
 S  S19  1  0.44548  0.09979  0.63792  1
 S  S20  1  0.63792  0.44548  0.09979  1
 S  S21  1  0.77441  0.38644  0.63865  1
 S  S22  1  0.63865  0.77441  0.38644  1
 S  S23  1  0.38644  0.77441  0.63865  1
 S  S24  1  0.76178  0.27451  0.89575  1
