CIF file written using JARVIS-Tools package.
data_AgPdO2
_symmetry_space_group_name_H-M  'P2/m'
_cell_length_a       6.21811
_cell_length_b       3.05294
_cell_length_c       6.39913
_cell_angle_alpha    90
_cell_angle_beta     117.499
_cell_angle_gamma    90

_symmetry_Int_Tables_number  10
_chemical_formula_structural  AgPdO2
_chemical_formula_sum  Ag2Pd2O4
_cell_volume  107.75317790920361
_cell_formula_units_Z  2
loop_
  _symmetry_equiv_pos_site_id
 _symmetry_equiv_pos_as_xyz
 1  'x, y, z'
loop_
 _atom_site_type_symbol
 _atom_site_label
 _atom_site_symmetry_multiplicity
 _atom_site_fract_x
 _atom_site_fract_y
 _atom_site_fract_z
 _atom_site_fract_occupancy
 Ag  Ag1  1  0.50000  0.00000  0.00000  1
 Ag  Ag2  1  0.50000  0.00000  0.50000  1
 O  O1  1  0.09461  0.50000  0.23416  1
 O  O2  1  0.75849  0.00000  0.35911  1
 O  O3  1  0.24151  0.00000  0.64089  1
 O  O4  1  0.90539  0.50000  0.76584  1
 Pd  Pd1  1  0.00000  0.50000  0.50000  1
 Pd  Pd2  1  0.00000  0.00000  0.00000  1
