CIF file written using JARVIS-Tools package.
data_CoP2O7
_symmetry_space_group_name_H-M  'C2'
_cell_length_a       4.97576
_cell_length_b       4.97576
_cell_length_c       4.38084
_cell_angle_alpha    81.4503
_cell_angle_beta     81.4503
_cell_angle_gamma    100.082

_symmetry_Int_Tables_number  5
_chemical_formula_structural  CoP2O7
_chemical_formula_sum  CoP2O7
_cell_volume  103.88621308171969
_cell_formula_units_Z  1
loop_
  _symmetry_equiv_pos_site_id
 _symmetry_equiv_pos_as_xyz
 1  'x, y, z'
loop_
 _atom_site_type_symbol
 _atom_site_label
 _atom_site_symmetry_multiplicity
 _atom_site_fract_x
 _atom_site_fract_y
 _atom_site_fract_z
 _atom_site_fract_occupancy
 Co  Co1  1  0.05366  0.94634  0.50000  1
 O  O1  1  0.49728  0.50272  0.00000  1
 O  O2  1  0.00245  0.24296  0.21835  1
 O  O3  1  0.75704  0.99755  0.78165  1
 O  O4  1  0.08036  0.62424  0.77366  1
 O  O5  1  0.80464  0.71397  0.32093  1
 O  O6  1  0.37576  0.91964  0.22634  1
 O  O7  1  0.28603  0.19536  0.67907  1
 P  P1  1  0.20403  0.38626  0.90831  1
 P  P2  1  0.61374  0.79597  0.09169  1
