CIF file written using JARVIS-Tools package.
data_Ca2SnS4
_symmetry_space_group_name_H-M  'I-4'
_cell_length_a       5.8799
_cell_length_b       5.8799
_cell_length_c       7.40541
_cell_angle_alpha    113.391
_cell_angle_beta     113.391
_cell_angle_gamma    90

_symmetry_Int_Tables_number  82
_chemical_formula_structural  Ca2SnS4
_chemical_formula_sum  Ca2SnS4
_cell_volume  211.86861497265375
_cell_formula_units_Z  1
loop_
  _symmetry_equiv_pos_site_id
 _symmetry_equiv_pos_as_xyz
 1  'x, y, z'
loop_
 _atom_site_type_symbol
 _atom_site_label
 _atom_site_symmetry_multiplicity
 _atom_site_fract_x
 _atom_site_fract_y
 _atom_site_fract_z
 _atom_site_fract_occupancy
 Ca  Ca1  1  0.25000  0.75000  0.50000  1
 Ca  Ca2  1  0.50000  0.50000  0.00000  1
 S  S1  1  0.38087  0.91654  0.25330  1
 S  S2  1  0.87242  0.33676  0.25330  1
 S  S3  1  0.66324  0.61913  0.74670  1
 S  S4  1  0.08346  0.12758  0.74670  1
 Sn  Sn1  1  0.75000  0.25000  0.50000  1
