CIF file written using JARVIS-Tools package.
data_W
_symmetry_space_group_name_H-M  'Im-3m'
_cell_length_a       3.18103
_cell_length_b       4.49861
_cell_length_c       4.49844
_cell_angle_alpha    90
_cell_angle_beta     90
_cell_angle_gamma    90

_symmetry_Int_Tables_number  229
_chemical_formula_structural  W
_chemical_formula_sum  W4
_cell_volume  64.3735898234259
_cell_formula_units_Z  4
loop_
  _symmetry_equiv_pos_site_id
 _symmetry_equiv_pos_as_xyz
 1  'x, y, z'
loop_
 _atom_site_type_symbol
 _atom_site_label
 _atom_site_symmetry_multiplicity
 _atom_site_fract_x
 _atom_site_fract_y
 _atom_site_fract_z
 _atom_site_fract_occupancy
 W  W1  1  0.24999  0.75000  0.50000  1
 W  W2  1  0.75001  0.75000  0.00000  1
 W  W3  1  0.75001  0.25000  0.50000  1
 W  W4  1  0.24999  0.25000  0.00000  1
