CIF file written using JARVIS-Tools package.
data_Mg3Sn
_symmetry_space_group_name_H-M  'Pmm2'
_cell_length_a       6.35846
_cell_length_b       3.36386
_cell_length_c       5.14418
_cell_angle_alpha    90
_cell_angle_beta     90
_cell_angle_gamma    121.94

_symmetry_Int_Tables_number  25
_chemical_formula_structural  Mg3Sn
_chemical_formula_sum  Mg3Sn
_cell_volume  93.37021351392835
_cell_formula_units_Z  1
loop_
  _symmetry_equiv_pos_site_id
 _symmetry_equiv_pos_as_xyz
 1  'x, y, z'
loop_
 _atom_site_type_symbol
 _atom_site_label
 _atom_site_symmetry_multiplicity
 _atom_site_fract_x
 _atom_site_fract_y
 _atom_site_fract_z
 _atom_site_fract_occupancy
 Mg  Mg1  1  0.67158  0.67158  0.25000  1
 Mg  Mg2  1  0.33332  0.33332  0.75000  1
 Mg  Mg3  1  0.82795  0.32795  0.75000  1
 Sn  Sn1  1  0.16715  0.66715  0.25000  1
