CIF file written using JARVIS-Tools package.
data_Hf2N2O
_symmetry_space_group_name_H-M  'P1'
_cell_length_a       5.42499
_cell_length_b       5.4711
_cell_length_c       10.1762
_cell_angle_alpha    75.5982
_cell_angle_beta     75.0233
_cell_angle_gamma    60.6862

_symmetry_Int_Tables_number  1
_chemical_formula_structural  Hf2N2O
_chemical_formula_sum  Hf8N8O4
_cell_volume  251.7247308046397
_cell_formula_units_Z  4
loop_
  _symmetry_equiv_pos_site_id
 _symmetry_equiv_pos_as_xyz
 1  'x, y, z'
loop_
 _atom_site_type_symbol
 _atom_site_label
 _atom_site_symmetry_multiplicity
 _atom_site_fract_x
 _atom_site_fract_y
 _atom_site_fract_z
 _atom_site_fract_occupancy
 Hf  Hf1  1  0.69555  0.68679  0.96262  1
 Hf  Hf2  1  0.82937  0.81673  0.53583  1
 Hf  Hf3  1  0.41358  0.44154  0.71392  1
 Hf  Hf4  1  0.91964  0.95310  0.21347  1
 Hf  Hf5  1  0.08871  0.06768  0.78639  1
 Hf  Hf6  1  0.56458  0.58000  0.28502  1
 Hf  Hf7  1  0.19805  0.16856  0.46508  1
 Hf  Hf8  1  0.32164  0.30987  0.03588  1
 N  N1  1  0.11229  0.42567  0.62804  1
 N  N2  1  0.08709  0.67603  0.87439  1
 N  N3  1  0.38667  0.07416  0.87421  1
 N  N4  1  0.41713  0.82963  0.62142  1
 N  N5  1  0.57546  0.17392  0.36909  1
 N  N6  1  0.62210  0.91878  0.12534  1
 N  N7  1  0.92193  0.32679  0.12024  1
 N  N8  1  0.16777  0.86886  0.37647  1
 O  O1  1  0.81120  0.12672  0.62684  1
 O  O2  1  0.86797  0.56130  0.38151  1
 O  O3  1  0.68226  0.37477  0.87531  1
 O  O4  1  0.31703  0.61910  0.12891  1
