CIF file written using JARVIS-Tools package.
data_CuTeO4
_symmetry_space_group_name_H-M  'Cmmm'
_cell_length_a       4.89802
_cell_length_b       8.0845
_cell_length_c       7.4837
_cell_angle_alpha    22.2371
_cell_angle_beta     40.1772
_cell_angle_gamma    44.9895

_symmetry_Int_Tables_number  65
_chemical_formula_structural  CuTeO4
_chemical_formula_sum  CuTeO4
_cell_volume  72.35214357530043
_cell_formula_units_Z  1
loop_
  _symmetry_equiv_pos_site_id
 _symmetry_equiv_pos_as_xyz
 1  'x, y, z'
loop_
 _atom_site_type_symbol
 _atom_site_label
 _atom_site_symmetry_multiplicity
 _atom_site_fract_x
 _atom_site_fract_y
 _atom_site_fract_z
 _atom_site_fract_occupancy
 Cu  Cu1  1  0.50000  0.00000  0.50000  1
 O  O1  1  0.49992  0.00011  0.17483  1
 O  O2  1  0.11609  0.49998  0.19200  1
 O  O3  1  0.50008  0.99989  0.82517  1
 O  O4  1  0.88391  0.50001  0.80800  1
 Te  Te1  1  0.50000  0.50000  0.50000  1
