CIF file written using JARVIS-Tools package.
data_Te4Mo3WSe4
_symmetry_space_group_name_H-M  'P3m1'
_cell_length_a       3.44274
_cell_length_b       3.44273
_cell_length_c       37.4016
_cell_angle_alpha    89.9997
_cell_angle_beta     90
_cell_angle_gamma    120

_symmetry_Int_Tables_number  156
_chemical_formula_structural  Te4Mo3WSe4
_chemical_formula_sum  Te4Mo3WSe4
_cell_volume  383.90760668650023
_cell_formula_units_Z  1
loop_
  _symmetry_equiv_pos_site_id
 _symmetry_equiv_pos_as_xyz
 1  'x, y, z'
loop_
 _atom_site_type_symbol
 _atom_site_label
 _atom_site_symmetry_multiplicity
 _atom_site_fract_x
 _atom_site_fract_y
 _atom_site_fract_z
 _atom_site_fract_occupancy
 Mo  Mo1  1  0.33332  0.66663  0.09511  1
 Mo  Mo2  1  0.33334  0.66669  0.47265  1
 Mo  Mo3  1  0.66665  0.33330  0.27844  1
 Se  Se1  1  0.33336  0.66672  0.70058  1
 Se  Se2  1  0.66665  0.33329  0.05143  1
 Se  Se3  1  0.66664  0.33329  0.13888  1
 Se  Se4  1  0.33336  0.66672  0.61278  1
 Te  Te1  1  0.33332  0.66663  0.32818  1
 Te  Te2  1  0.66668  0.33335  0.42290  1
 Te  Te3  1  0.66667  0.33335  0.52236  1
 Te  Te4  1  0.33332  0.66664  0.22872  1
 W  W1  1  0.66669  0.33339  0.65672  1
