CIF file written using JARVIS-Tools package.
data_MnP2O7
_symmetry_space_group_name_H-M  'P-1'
_cell_length_a       4.95944
_cell_length_b       6.21716
_cell_length_c       8.78926
_cell_angle_alpha    112.882
_cell_angle_beta     99.0962
_cell_angle_gamma    103.852

_symmetry_Int_Tables_number  2
_chemical_formula_structural  MnP2O7
_chemical_formula_sum  Mn2P4O4
_cell_volume  232.66314649020327
_cell_formula_units_Z  2
loop_
  _symmetry_equiv_pos_site_id
 _symmetry_equiv_pos_as_xyz
 1  'x, y, z'
loop_
 _atom_site_type_symbol
 _atom_site_label
 _atom_site_symmetry_multiplicity
 _atom_site_fract_x
 _atom_site_fract_y
 _atom_site_fract_z
 _atom_site_fract_occupancy
 Mn  Mn1  1  0.07817  0.59402  0.36437  1
 Mn  Mn2  1  0.92183  0.40598  0.63563  1
 O  O1  1  0.06661  0.88098  0.34815  1
 O  O2  1  0.05721  0.30515  0.41208  1
 O  O3  1  0.30669  0.54330  0.74731  1
 O  O4  1  0.94279  0.69485  0.58792  1
 O  O5  1  0.37276  0.19701  0.93634  1
 O  O6  1  0.18950  0.46742  0.16908  1
 O  O7  1  0.73136  0.90850  0.82041  1
 O  O8  1  0.26864  0.09150  0.17959  1
 O  O9  1  0.53863  0.24349  0.49319  1
 O  O10  1  0.62724  0.80299  0.06366  1
 O  O11  1  0.81050  0.53258  0.83092  1
 O  O12  1  0.69331  0.45670  0.25269  1
 O  O13  1  0.46137  0.75651  0.50681  1
 O  O14  1  0.93339  0.11902  0.65185  1
 P  P1  1  0.75590  0.87285  0.63666  1
 P  P2  1  0.39481  0.30807  0.12069  1
 P  P3  1  0.60519  0.69193  0.87931  1
 P  P4  1  0.24410  0.12715  0.36334  1
