CIF file written using JARVIS-Tools package.
data_AgI
_symmetry_space_group_name_H-M  'P6_3mc'
_cell_length_a       4.48334
_cell_length_b       4.48334
_cell_length_c       14.8909
_cell_angle_alpha    90
_cell_angle_beta     90
_cell_angle_gamma    120

_symmetry_Int_Tables_number  186
_chemical_formula_structural  AgI
_chemical_formula_sum  Ag4I4
_cell_volume  259.21096272937325
_cell_formula_units_Z  4
loop_
  _symmetry_equiv_pos_site_id
 _symmetry_equiv_pos_as_xyz
 1  'x, y, z'
loop_
 _atom_site_type_symbol
 _atom_site_label
 _atom_site_symmetry_multiplicity
 _atom_site_fract_x
 _atom_site_fract_y
 _atom_site_fract_z
 _atom_site_fract_occupancy
 Ag  Ag1  1  0.00000  0.00000  0.32262  1
 Ag  Ag2  1  0.66667  0.33333  0.42760  1
 Ag  Ag3  1  0.33333  0.66667  0.92760  1
 Ag  Ag4  1  0.00000  0.00000  0.82262  1
 I  I1  1  0.00000  0.00000  0.01683  1
 I  I2  1  0.66667  0.33333  0.23296  1
 I  I3  1  0.33333  0.66667  0.73296  1
 I  I4  1  0.00000  0.00000  0.51683  1
