CIF file written using JARVIS-Tools package.
data_PrH3O3
_symmetry_space_group_name_H-M  'P6_3/m'
_cell_length_a       6.49005
_cell_length_b       3.77763
_cell_length_c       6.48973
_cell_angle_alpha    90
_cell_angle_beta     119.997
_cell_angle_gamma    90

_symmetry_Int_Tables_number  176
_chemical_formula_structural  PrH3O3
_chemical_formula_sum  Pr2H6O6
_cell_volume  137.7965567475576
_cell_formula_units_Z  2
loop_
  _symmetry_equiv_pos_site_id
 _symmetry_equiv_pos_as_xyz
 1  'x, y, z'
loop_
 _atom_site_type_symbol
 _atom_site_label
 _atom_site_symmetry_multiplicity
 _atom_site_fract_x
 _atom_site_fract_y
 _atom_site_fract_z
 _atom_site_fract_occupancy
 H  H1  1  0.13470  0.00000  0.86673  1
 H  H2  1  0.13960  0.00000  0.27728  1
 H  H3  1  0.72900  0.00000  0.87158  1
 H  H4  1  0.86749  0.50000  0.14365  1
 H  H5  1  0.86265  0.50000  0.73314  1
 H  H6  1  0.27324  0.50000  0.13889  1
 O  O1  1  0.08291  0.00000  0.69723  1
 O  O2  1  0.30909  0.00000  0.39499  1
 O  O3  1  0.61131  0.00000  0.92340  1
 O  O4  1  0.91931  0.50000  0.31316  1
 O  O5  1  0.69315  0.50000  0.61545  1
 O  O6  1  0.39089  0.50000  0.08702  1
 Pr  Pr1  1  0.66780  0.00000  0.33855  1
 Pr  Pr2  1  0.33444  0.50000  0.67188  1
