CIF file written using JARVIS-Tools package.
data_CaH4SO6
_symmetry_space_group_name_H-M  'C2/c'
_cell_length_a       5.64171
_cell_length_b       8.16263
_cell_length_c       6.33921
_cell_angle_alpha    98.7343
_cell_angle_beta     63.9335
_cell_angle_gamma    110.217

_symmetry_Int_Tables_number  15
_chemical_formula_structural  CaH4SO6
_chemical_formula_sum  Ca2H8S2O2
_cell_volume  246.0779472414823
_cell_formula_units_Z  2
loop_
  _symmetry_equiv_pos_site_id
 _symmetry_equiv_pos_as_xyz
 1  'x, y, z'
loop_
 _atom_site_type_symbol
 _atom_site_label
 _atom_site_symmetry_multiplicity
 _atom_site_fract_x
 _atom_site_fract_y
 _atom_site_fract_z
 _atom_site_fract_occupancy
 Ca  Ca1  1  0.32452  0.14904  0.25000  1
 Ca  Ca2  1  0.67548  0.85096  0.75000  1
 H  H1  1  0.09979  0.65547  0.02961  1
 H  H2  1  0.05569  0.65547  0.47039  1
 H  H3  1  0.24464  0.49308  0.47430  1
 H  H4  1  0.25157  0.50692  0.97430  1
 H  H5  1  0.74843  0.49308  0.02570  1
 H  H6  1  0.75536  0.50692  0.52570  1
 H  H7  1  0.94431  0.34453  0.52961  1
 H  H8  1  0.90021  0.34453  0.97039  1
 O  O1  1  0.72148  0.36721  0.02777  1
 O  O2  1  0.87200  0.95068  0.34408  1
 O  O3  1  0.19971  0.26995  0.94874  1
 O  O4  1  0.80029  0.73005  0.05126  1
 O  O5  1  0.12800  0.04932  0.65592  1
 O  O6  1  0.27852  0.63279  0.97223  1
 O  O7  1  0.85427  0.63279  0.52777  1
 O  O8  1  0.57868  0.95068  0.15592  1
 O  O9  1  0.14573  0.36721  0.47223  1
 O  O10  1  0.42132  0.04932  0.84408  1
 O  O11  1  0.57024  0.26995  0.55126  1
 O  O12  1  0.42976  0.73005  0.44874  1
 S  S1  1  0.33097  0.16195  0.75000  1
 S  S2  1  0.66903  0.83805  0.25000  1
