CIF file written using JARVIS-Tools package.
data_CrAgS2
_symmetry_space_group_name_H-M  'R3m'
_cell_length_a       9.09287
_cell_length_b       9.09287
_cell_length_c       9.09287
_cell_angle_alpha    19.0701
_cell_angle_beta     19.0701
_cell_angle_gamma    19.0701

_symmetry_Int_Tables_number  160
_chemical_formula_structural  CrAgS2
_chemical_formula_sum  CrAgS2
_cell_volume  70.14380913824918
_cell_formula_units_Z  1
loop_
  _symmetry_equiv_pos_site_id
 _symmetry_equiv_pos_as_xyz
 1  'x, y, z'
loop_
 _atom_site_type_symbol
 _atom_site_label
 _atom_site_symmetry_multiplicity
 _atom_site_fract_x
 _atom_site_fract_y
 _atom_site_fract_z
 _atom_site_fract_occupancy
 Ag  Ag1  1  0.02593  0.02593  0.02593  1
 Cr  Cr1  1  0.85573  0.85573  0.85573  1
 S  S1  1  0.13384  0.13384  0.13384  1
 S  S2  1  0.24451  0.24451  0.24451  1
