CIF file written using JARVIS-Tools package.
data_ZnGe2WO6
_symmetry_space_group_name_H-M  'C2/c'
_cell_length_a       4.94623
_cell_length_b       7.80701
_cell_length_c       7.80701
_cell_angle_alpha    71.4326
_cell_angle_beta     90.2664
_cell_angle_gamma    90.2665

_symmetry_Int_Tables_number  15
_chemical_formula_structural  ZnGe2WO6
_chemical_formula_sum  Zn2Ge4W2O2
_cell_volume  285.7735867722854
_cell_formula_units_Z  2
loop_
  _symmetry_equiv_pos_site_id
 _symmetry_equiv_pos_as_xyz
 1  'x, y, z'
loop_
 _atom_site_type_symbol
 _atom_site_label
 _atom_site_symmetry_multiplicity
 _atom_site_fract_x
 _atom_site_fract_y
 _atom_site_fract_z
 _atom_site_fract_occupancy
 Ge  Ge1  1  0.70909  0.41997  0.19720  1
 Ge  Ge2  1  0.79091  0.80280  0.58003  1
 Ge  Ge3  1  0.29091  0.58003  0.80280  1
 Ge  Ge4  1  0.20909  0.19720  0.41997  1
 O  O1  1  0.96419  0.14280  0.03417  1
 O  O2  1  0.53784  0.32429  0.43651  1
 O  O3  1  0.03581  0.85720  0.96583  1
 O  O4  1  0.46216  0.67571  0.56349  1
 O  O5  1  0.03784  0.43651  0.32429  1
 O  O6  1  0.96216  0.56349  0.67571  1
 O  O7  1  0.43750  0.32804  0.82304  1
 O  O8  1  0.46419  0.03417  0.14280  1
 O  O9  1  0.56250  0.67196  0.17696  1
 O  O10  1  0.06250  0.17696  0.67196  1
 O  O11  1  0.53581  0.96583  0.85720  1
 O  O12  1  0.93750  0.82304  0.32804  1
 W  W1  1  0.25000  0.10632  0.89368  1
 W  W2  1  0.75000  0.89368  0.10632  1
 Zn  Zn1  1  0.25000  0.63404  0.36596  1
 Zn  Zn2  1  0.75000  0.36596  0.63404  1
