CIF file written using JARVIS-Tools package.
data_MnCo3O8
_symmetry_space_group_name_H-M  'C2/m'
_cell_length_a       2.83886
_cell_length_b       2.83886
_cell_length_c       17.6268
_cell_angle_alpha    99.1718
_cell_angle_beta     99.1718
_cell_angle_gamma    60.0036

_symmetry_Int_Tables_number  12
_chemical_formula_structural  MnCo3O8
_chemical_formula_sum  MnCo3O8
_cell_volume  120.92760802559843
_cell_formula_units_Z  1
loop_
  _symmetry_equiv_pos_site_id
 _symmetry_equiv_pos_as_xyz
 1  'x, y, z'
loop_
 _atom_site_type_symbol
 _atom_site_label
 _atom_site_symmetry_multiplicity
 _atom_site_fract_x
 _atom_site_fract_y
 _atom_site_fract_z
 _atom_site_fract_occupancy
 Co  Co1  1  0.50070  0.50070  0.25320  1
 Co  Co2  1  -0.00000  -0.00000  0.50000  1
 Co  Co3  1  0.49930  0.49930  0.74680  1
 Mn  Mn1  1  0.00000  0.00000  0.00000  1
 O  O1  1  0.13222  0.13222  0.19995  1
 O  O2  1  0.70361  0.70361  0.05598  1
 O  O3  1  0.13090  0.13090  0.69367  1
 O  O4  1  0.29821  0.29821  0.44679  1
 O  O5  1  0.86910  0.86910  0.30633  1
 O  O6  1  0.70179  0.70179  0.55321  1
 O  O7  1  0.29639  0.29639  0.94402  1
 O  O8  1  0.86778  0.86778  0.80005  1
