CIF file written using JARVIS-Tools package.
data_SbPO4
_symmetry_space_group_name_H-M  'Pnma'
_cell_length_a       6.80473
_cell_length_b       9.41523
_cell_length_c       5.07482
_cell_angle_alpha    90
_cell_angle_beta     90
_cell_angle_gamma    90

_symmetry_Int_Tables_number  62
_chemical_formula_structural  SbPO4
_chemical_formula_sum  Sb4P4O6
_cell_volume  325.1339271705572
_cell_formula_units_Z  4
loop_
  _symmetry_equiv_pos_site_id
 _symmetry_equiv_pos_as_xyz
 1  'x, y, z'
loop_
 _atom_site_type_symbol
 _atom_site_label
 _atom_site_symmetry_multiplicity
 _atom_site_fract_x
 _atom_site_fract_y
 _atom_site_fract_z
 _atom_site_fract_occupancy
 O  O1  1  0.75000  0.55615  0.68954  1
 O  O2  1  0.06849  0.17182  0.06497  1
 O  O3  1  0.06849  0.67182  0.43503  1
 O  O4  1  0.25000  0.14313  0.50592  1
 O  O5  1  0.93151  0.32818  0.56497  1
 O  O6  1  0.25000  0.94385  0.18954  1
 O  O7  1  0.25000  0.64313  -0.00592  1
 O  O8  1  0.25000  0.44385  0.31046  1
 O  O9  1  0.43151  0.67182  0.43503  1
 O  O10  1  0.56849  0.82818  0.93503  1
 O  O11  1  0.56849  0.32818  0.56497  1
 O  O12  1  0.93151  0.82818  0.93503  1
 O  O13  1  0.75000  0.05615  0.81046  1
 O  O14  1  0.75000  0.35687  0.00592  1
 O  O15  1  0.75000  0.85687  0.49408  1
 O  O16  1  0.43151  0.17182  0.06497  1
 P  P1  1  0.75000  0.89151  0.79628  1
 P  P2  1  0.75000  0.39151  0.70372  1
 P  P3  1  0.25000  0.60849  0.29628  1
 P  P4  1  0.25000  0.10849  0.20372  1
 Sb  Sb1  1  0.75000  0.66143  0.32067  1
 Sb  Sb2  1  0.75000  0.16143  0.17933  1
 Sb  Sb3  1  0.25000  0.83857  0.82067  1
 Sb  Sb4  1  0.25000  0.33857  0.67933  1
