CIF file written using JARVIS-Tools package.
data_GePbS3
_symmetry_space_group_name_H-M  'P2_1/c'
_cell_length_a       6.93484
_cell_length_b       7.28801
_cell_length_c       10.4211
_cell_angle_alpha    90
_cell_angle_beta     90
_cell_angle_gamma    105.301

_symmetry_Int_Tables_number  14
_chemical_formula_structural  GePbS3
_chemical_formula_sum  Ge4Pb4S2
_cell_volume  508.0243523072764
_cell_formula_units_Z  4
loop_
  _symmetry_equiv_pos_site_id
 _symmetry_equiv_pos_as_xyz
 1  'x, y, z'
loop_
 _atom_site_type_symbol
 _atom_site_label
 _atom_site_symmetry_multiplicity
 _atom_site_fract_x
 _atom_site_fract_y
 _atom_site_fract_z
 _atom_site_fract_occupancy
 Ge  Ge1  1  0.99307  0.32082  0.79543  1
 Ge  Ge2  1  0.49307  0.32082  0.70457  1
 Ge  Ge3  1  0.00693  0.67918  0.20457  1
 Ge  Ge4  1  0.50693  0.67918  0.29543  1
 Pb  Pb1  1  0.77861  0.14017  0.41739  1
 Pb  Pb2  1  0.27861  0.14017  0.08261  1
 Pb  Pb3  1  0.72139  0.85983  0.91739  1
 Pb  Pb4  1  0.22139  0.85983  0.58261  1
 S  S1  1  0.41203  0.23173  0.50412  1
 S  S2  1  0.08797  0.76827  0.00412  1
 S  S3  1  0.41591  0.05795  0.82211  1
 S  S4  1  0.91591  0.05795  0.67789  1
 S  S5  1  0.68737  0.48323  0.21554  1
 S  S6  1  0.08409  0.94205  0.32211  1
 S  S7  1  0.58797  0.76827  0.49588  1
 S  S8  1  0.81263  0.51677  0.71554  1
 S  S9  1  0.91203  0.23173  0.99588  1
 S  S10  1  0.58409  0.94205  0.17789  1
 S  S11  1  0.18737  0.48323  0.28446  1
 S  S12  1  0.31263  0.51677  0.78446  1
