CIF file written using JARVIS-Tools package.
data_NiH12SO9
_symmetry_space_group_name_H-M  'R3'
_cell_length_a       5.87594
_cell_length_b       5.87594
_cell_length_c       5.87594
_cell_angle_alpha    96.1029
_cell_angle_beta     96.103
_cell_angle_gamma    96.103

_symmetry_Int_Tables_number  146
_chemical_formula_structural  NiH12SO9
_chemical_formula_sum  NiH2SO9
_cell_volume  199.15917132769076
_cell_formula_units_Z  1
loop_
  _symmetry_equiv_pos_site_id
 _symmetry_equiv_pos_as_xyz
 1  'x, y, z'
loop_
 _atom_site_type_symbol
 _atom_site_label
 _atom_site_symmetry_multiplicity
 _atom_site_fract_x
 _atom_site_fract_y
 _atom_site_fract_z
 _atom_site_fract_occupancy
 H  H1  1  0.95565  0.02489  0.54804  1
 H  H2  1  0.80238  0.36933  0.18993  1
 H  H3  1  0.54804  0.95565  0.02489  1
 H  H4  1  0.64107  0.73874  0.14032  1
 H  H5  1  0.40902  0.27795  0.07208  1
 H  H6  1  0.36933  0.18993  0.80238  1
 H  H7  1  0.73874  0.14032  0.64107  1
 H  H8  1  0.18993  0.80238  0.36933  1
 H  H9  1  0.14032  0.64107  0.73874  1
 H  H10  1  0.07208  0.40902  0.27795  1
 H  H11  1  0.02489  0.54804  0.95565  1
 H  H12  1  0.27795  0.07208  0.40902  1
 Ni  Ni1  1  0.00664  0.00664  0.00664  1
 O  O1  1  0.89160  0.08987  0.68762  1
 O  O2  1  0.08987  0.68762  0.89160  1
 O  O3  1  0.14144  0.95668  0.34093  1
 O  O4  1  0.25438  0.56353  0.48466  1
 O  O5  1  0.34093  0.14144  0.95668  1
 O  O6  1  0.48466  0.25438  0.56353  1
 O  O7  1  0.56353  0.48466  0.25438  1
 O  O8  1  0.68762  0.89160  0.08987  1
 O  O9  1  0.95668  0.34093  0.14144  1
 S  S1  1  0.50736  0.50736  0.50736  1
