CIF file written using JARVIS-Tools package.
data_WSCl4
_symmetry_space_group_name_H-M  'P-1'
_cell_length_a       6.06258
_cell_length_b       7.1877
_cell_length_c       7.65329
_cell_angle_alpha    78.0981
_cell_angle_beta     96.8855
_cell_angle_gamma    77.1104

_symmetry_Int_Tables_number  2
_chemical_formula_structural  WSCl4
_chemical_formula_sum  W2S2Cl8
_cell_volume  313.25937902682034
_cell_formula_units_Z  2
loop_
  _symmetry_equiv_pos_site_id
 _symmetry_equiv_pos_as_xyz
 1  'x, y, z'
loop_
 _atom_site_type_symbol
 _atom_site_label
 _atom_site_symmetry_multiplicity
 _atom_site_fract_x
 _atom_site_fract_y
 _atom_site_fract_z
 _atom_site_fract_occupancy
 Cl  Cl1  1  0.17990  0.83274  0.89613  1
 Cl  Cl2  1  -0.00080  0.73822  0.52205  1
 Cl  Cl3  1  0.80435  0.65426  0.08551  1
 Cl  Cl4  1  0.62520  0.55578  0.71079  1
 Cl  Cl5  1  0.37480  0.44422  0.28921  1
 Cl  Cl6  1  0.19565  0.34574  0.91449  1
 Cl  Cl7  1  0.00080  0.26178  0.47795  1
 Cl  Cl8  1  0.82010  0.16726  0.10387  1
 S  S1  1  0.61400  0.03533  0.70645  1
 S  S2  1  0.38600  -0.03533  0.29355  1
 W  W1  1  0.85088  0.75785  0.78186  1
 W  W2  1  0.14912  0.24215  0.21814  1
