CIF file written using JARVIS-Tools package.
data_Tb5Br8
_symmetry_space_group_name_H-M  'C2/m'
_cell_length_a       3.84544
_cell_length_b       10.05
_cell_length_c       10.5574
_cell_angle_alpha    83.0932
_cell_angle_beta     79.5067
_cell_angle_gamma    78.9705

_symmetry_Int_Tables_number  12
_chemical_formula_structural  Tb5Br8
_chemical_formula_sum  Tb5Br8
_cell_volume  392.2299005660914
_cell_formula_units_Z  1
loop_
  _symmetry_equiv_pos_site_id
 _symmetry_equiv_pos_as_xyz
 1  'x, y, z'
loop_
 _atom_site_type_symbol
 _atom_site_label
 _atom_site_symmetry_multiplicity
 _atom_site_fract_x
 _atom_site_fract_y
 _atom_site_fract_z
 _atom_site_fract_occupancy
 Br  Br1  1  0.03970  0.15966  0.76095  1
 Br  Br2  1  0.96030  0.84034  0.23905  1
 Br  Br3  1  0.70990  0.15453  0.42567  1
 Br  Br4  1  0.29010  0.84547  0.57433  1
 Br  Br5  1  0.36229  0.17770  0.09772  1
 Br  Br6  1  0.32966  0.49754  0.84315  1
 Br  Br7  1  0.67034  0.50246  0.15685  1
 Br  Br8  1  0.63771  0.82230  0.90228  1
 Tb  Tb1  1  0.15516  0.35974  0.32994  1
 Tb  Tb2  1  0.84484  0.64026  0.67006  1
 Tb  Tb3  1  0.48330  0.64830  0.38510  1
 Tb  Tb4  1  0.51670  0.35170  0.61490  1
 Tb  Tb5  1  0.00000  0.00000  0.00000  1
