CIF file written using JARVIS-Tools package.
data_Tl2I3O9
_symmetry_space_group_name_H-M  'P-1'
_cell_length_a       7.11499
_cell_length_b       7.13997
_cell_length_c       10.5907
_cell_angle_alpha    86.9744
_cell_angle_beta     106.965
_cell_angle_gamma    108.342

_symmetry_Int_Tables_number  2
_chemical_formula_structural  Tl2I3O9
_chemical_formula_sum  Tl4I6O8
_cell_volume  488.0088506219262
_cell_formula_units_Z  2
loop_
  _symmetry_equiv_pos_site_id
 _symmetry_equiv_pos_as_xyz
 1  'x, y, z'
loop_
 _atom_site_type_symbol
 _atom_site_label
 _atom_site_symmetry_multiplicity
 _atom_site_fract_x
 _atom_site_fract_y
 _atom_site_fract_z
 _atom_site_fract_occupancy
 I  I1  1  0.96085  0.02443  0.80941  1
 I  I2  1  0.55409  0.46877  0.19252  1
 I  I3  1  0.03915  0.97557  0.19059  1
 I  I4  1  0.59143  0.95000  0.37095  1
 I  I5  1  0.40857  0.05000  0.62905  1
 I  I6  1  0.44591  0.53123  0.80748  1
 O  O1  1  0.43168  0.66742  0.94965  1
 O  O2  1  0.33613  0.93866  0.39339  1
 O  O3  1  0.66387  0.06134  0.60661  1
 O  O4  1  0.58742  0.69733  0.41453  1
 O  O5  1  0.45883  0.87430  0.19107  1
 O  O6  1  0.91843  0.70703  0.18512  1
 O  O7  1  0.08157  0.29297  0.81488  1
 O  O8  1  0.95468  0.04736  0.32291  1
 O  O9  1  0.41258  0.30267  0.58547  1
 O  O10  1  0.28251  0.34998  0.18947  1
 O  O11  1  0.54117  0.12570  0.80893  1
 O  O12  1  0.32151  0.66522  0.67447  1
 O  O13  1  0.56832  0.33258  0.05035  1
 O  O14  1  0.04532  0.95264  0.67709  1
 O  O15  1  0.84713  0.04862  0.04742  1
 O  O16  1  0.15287  0.95138  0.95258  1
 O  O17  1  0.71749  0.65002  0.81053  1
 O  O18  1  0.67849  0.33478  0.32553  1
 Tl  Tl1  1  0.50000  0.00000  -0.00000  1
 Tl  Tl2  1  0.84062  0.53513  0.59958  1
 Tl  Tl3  1  0.15938  0.46487  0.40042  1
 Tl  Tl4  1  -0.00000  0.50000  0.00000  1
