CIF file written using JARVIS-Tools package.
data_P2Pt
_symmetry_space_group_name_H-M  'Pa-3'
_cell_length_a       5.7731
_cell_length_b       5.7731
_cell_length_c       5.7731
_cell_angle_alpha    90
_cell_angle_beta     90
_cell_angle_gamma    90

_symmetry_Int_Tables_number  205
_chemical_formula_structural  P2Pt
_chemical_formula_sum  P8Pt4
_cell_volume  192.40968201146958
_cell_formula_units_Z  4
loop_
  _symmetry_equiv_pos_site_id
 _symmetry_equiv_pos_as_xyz
 1  'x, y, z'
loop_
 _atom_site_type_symbol
 _atom_site_label
 _atom_site_symmetry_multiplicity
 _atom_site_fract_x
 _atom_site_fract_y
 _atom_site_fract_z
 _atom_site_fract_occupancy
 P  P1  1  0.38985  0.38985  0.38985  1
 P  P2  1  0.11015  0.61015  0.88985  1
 P  P3  1  0.88985  0.11015  0.61015  1
 P  P4  1  0.61015  0.88985  0.11015  1
 P  P5  1  0.61015  0.61015  0.61015  1
 P  P6  1  0.88985  0.38985  0.11015  1
 P  P7  1  0.11015  0.88985  0.38985  1
 P  P8  1  0.38985  0.11015  0.88985  1
 Pt  Pt1  1  0.00000  0.00000  0.00000  1
 Pt  Pt2  1  0.50000  0.00000  0.50000  1
 Pt  Pt3  1  0.50000  0.50000  0.00000  1
 Pt  Pt4  1  0.00000  0.50000  0.50000  1
