CIF file written using JARVIS-Tools package.
data_H8N3O6
_symmetry_space_group_name_H-M  'P1'
_cell_length_a       5.20862
_cell_length_b       5.39435
_cell_length_c       5.16653
_cell_angle_alpha    90.1615
_cell_angle_beta     89.9468
_cell_angle_gamma    96.6703

_symmetry_Int_Tables_number  1
_chemical_formula_structural  H8N3O6
_chemical_formula_sum  H8N3O6
_cell_volume  144.18133410097886
_cell_formula_units_Z  1
loop_
  _symmetry_equiv_pos_site_id
 _symmetry_equiv_pos_as_xyz
 1  'x, y, z'
loop_
 _atom_site_type_symbol
 _atom_site_label
 _atom_site_symmetry_multiplicity
 _atom_site_fract_x
 _atom_site_fract_y
 _atom_site_fract_z
 _atom_site_fract_occupancy
 H  H1  1  0.33824  0.04623  0.00070  1
 H  H2  1  0.32593  0.65510  0.50009  1
 H  H3  1  0.31140  0.33277  0.49956  1
 H  H4  1  0.54790  0.50956  0.33191  1
 H  H5  1  0.54770  0.50968  0.66766  1
 H  H6  1  0.62340  0.08264  0.16318  1
 H  H7  1  0.62302  0.08242  0.83724  1
 H  H8  1  0.54014  0.81179  -0.00008  1
 N  N1  1  0.52730  0.00578  0.00023  1
 N  N2  1  0.43289  0.50182  0.49979  1
 N  N3  1  0.12067  0.49075  -0.00015  1
 O  O1  1  0.04753  0.26887  0.00111  1
 O  O2  1  0.93039  0.64799  -0.00109  1
 O  O3  1  0.93196  0.92150  0.49982  1
 O  O4  1  0.67042  0.53100  -0.00042  1
 O  O5  1  0.80440  0.12852  0.50041  1
 O  O6  1  0.19671  0.97360  0.50003  1
