CIF file written using JARVIS-Tools package.
data_MoO2
_symmetry_space_group_name_H-M  'P4_2/mnm'
_cell_length_a       4.65952
_cell_length_b       5.64738
_cell_length_c       6.38122
_cell_angle_alpha    124.4
_cell_angle_beta     89.9999
_cell_angle_gamma    90.0012

_symmetry_Int_Tables_number  136
_chemical_formula_structural  MoO2
_chemical_formula_sum  Mo4O8
_cell_volume  138.5493469886315
_cell_formula_units_Z  4
loop_
  _symmetry_equiv_pos_site_id
 _symmetry_equiv_pos_as_xyz
 1  'x, y, z'
loop_
 _atom_site_type_symbol
 _atom_site_label
 _atom_site_symmetry_multiplicity
 _atom_site_fract_x
 _atom_site_fract_y
 _atom_site_fract_z
 _atom_site_fract_occupancy
 Mo  Mo1  1  0.50000  0.50000  0.25000  1
 Mo  Mo2  1  0.00000  -0.00000  0.25000  1
 Mo  Mo3  1  0.50000  0.50000  0.75000  1
 Mo  Mo4  1  -0.00000  0.00000  0.75000  1
 O  O1  1  0.19554  0.80452  0.40226  1
 O  O2  1  0.69555  0.69549  0.09774  1
 O  O3  1  0.80446  0.19548  0.59774  1
 O  O4  1  0.30445  0.30451  0.90226  1
 O  O5  1  0.80446  0.19549  0.09775  1
 O  O6  1  0.30446  0.30451  0.40225  1
 O  O7  1  0.19554  0.80451  0.90225  1
 O  O8  1  0.69554  0.69549  0.59775  1
