CIF file written using JARVIS-Tools package.
data_CuSiH8O4F6
_symmetry_space_group_name_H-M  'P2_1/c'
_cell_length_a       6.5665
_cell_length_b       6.27099
_cell_length_c       9.31146
_cell_angle_alpha    90
_cell_angle_beta     90
_cell_angle_gamma    109.633

_symmetry_Int_Tables_number  14
_chemical_formula_structural  CuSiH8O4F6
_chemical_formula_sum  Cu2Si2H6O8F2
_cell_volume  361.13983010452944
_cell_formula_units_Z  2
loop_
  _symmetry_equiv_pos_site_id
 _symmetry_equiv_pos_as_xyz
 1  'x, y, z'
loop_
 _atom_site_type_symbol
 _atom_site_label
 _atom_site_symmetry_multiplicity
 _atom_site_fract_x
 _atom_site_fract_y
 _atom_site_fract_z
 _atom_site_fract_occupancy
 Cu  Cu1  1  0.00000  0.50000  0.50000  1
 Cu  Cu2  1  0.00000  0.00000  0.00000  1
 F  F1  1  0.31359  0.78611  0.40684  1
 F  F2  1  0.50991  0.68111  0.14129  1
 F  F3  1  0.49009  0.81889  0.64129  1
 F  F4  1  0.49009  0.31889  0.85871  1
 F  F5  1  0.50991  0.18111  0.35871  1
 F  F6  1  0.70709  0.43011  0.07593  1
 F  F7  1  0.29291  0.06989  0.57593  1
 F  F8  1  0.29291  0.56989  0.92407  1
 F  F9  1  0.70709  0.93011  0.42407  1
 F  F10  1  0.68641  0.21389  0.59316  1
 F  F11  1  0.68641  0.71389  0.90684  1
 F  F12  1  0.31359  0.28611  0.09316  1
 H  H1  1  0.03592  0.78675  0.71136  1
 H  H2  1  0.24500  0.29512  0.59939  1
 H  H3  1  0.24500  0.79512  0.90061  1
 H  H4  1  0.75500  0.70488  0.40061  1
 H  H5  1  0.31974  0.55855  0.65431  1
 H  H6  1  0.68026  0.94145  0.15431  1
 H  H7  1  0.68026  0.44145  0.34569  1
 H  H8  1  0.31974  0.05855  0.84569  1
 H  H9  1  0.75500  0.20488  0.09939  1
 H  H10  1  0.96408  0.71325  0.21136  1
 H  H11  1  0.03592  0.28675  0.78864  1
 H  H12  1  0.96408  0.21325  0.28864  1
 H  H13  1  0.20166  0.39415  0.28634  1
 H  H14  1  0.79834  0.10585  0.78634  1
 H  H15  1  0.79834  0.60585  0.71366  1
 H  H16  1  0.20166  0.89415  0.21366  1
 O  O1  1  0.91982  0.18412  0.85027  1
 O  O2  1  0.80746  0.58133  0.36390  1
 O  O3  1  0.08018  0.81588  0.14973  1
 O  O4  1  0.19254  0.91867  0.86390  1
 O  O5  1  0.80746  0.08133  0.13610  1
 O  O6  1  0.19254  0.41867  0.63610  1
 O  O7  1  0.91982  0.68412  0.64973  1
 O  O8  1  0.08018  0.31588  0.35027  1
 Si  Si1  1  0.50000  0.00000  0.50000  1
 Si  Si2  1  0.50000  0.50000  0.00000  1
