CIF file written using JARVIS-Tools package.
data_SiBr4
_symmetry_space_group_name_H-M  'P2_1/c'
_cell_length_a       6.66514
_cell_length_b       9.99861
_cell_length_c       10.0934
_cell_angle_alpha    102.007
_cell_angle_beta     90
_cell_angle_gamma    90

_symmetry_Int_Tables_number  14
_chemical_formula_structural  SiBr4
_chemical_formula_sum  Si4Br6
_cell_volume  657.9324962478877
_cell_formula_units_Z  4
loop_
  _symmetry_equiv_pos_site_id
 _symmetry_equiv_pos_as_xyz
 1  'x, y, z'
loop_
 _atom_site_type_symbol
 _atom_site_label
 _atom_site_symmetry_multiplicity
 _atom_site_fract_x
 _atom_site_fract_y
 _atom_site_fract_z
 _atom_site_fract_occupancy
 Br  Br1  1  0.91879  0.92162  0.80246  1
 Br  Br2  1  0.41879  0.07838  0.69754  1
 Br  Br3  1  0.41851  0.30540  0.46234  1
 Br  Br4  1  0.07223  0.56957  0.69107  1
 Br  Br5  1  0.61147  0.19194  0.08134  1
 Br  Br6  1  0.08149  0.30540  0.96234  1
 Br  Br7  1  0.08121  0.07838  0.19754  1
 Br  Br8  1  0.57223  0.43043  0.80893  1
 Br  Br9  1  0.58121  0.92162  0.30246  1
 Br  Br10  1  0.42777  0.56957  0.19107  1
 Br  Br11  1  0.92777  0.43043  0.30893  1
 Br  Br12  1  0.58149  0.69460  0.53766  1
 Br  Br13  1  0.11147  0.80806  0.41866  1
 Br  Br14  1  0.91851  0.69460  0.03766  1
 Br  Br15  1  0.88853  0.19194  0.58134  1
 Br  Br16  1  0.38853  0.80806  0.91866  1
 Si  Si1  1  0.57494  0.25190  0.63739  1
 Si  Si2  1  0.92506  0.25190  0.13739  1
 Si  Si3  1  0.42506  0.74810  0.36261  1
 Si  Si4  1  0.07494  0.74810  0.86261  1
