CIF file written using JARVIS-Tools package.
data_MgGe2WO6
_symmetry_space_group_name_H-M  'C2/c'
_cell_length_a       4.97931
_cell_length_b       7.77302
_cell_length_c       7.77302
_cell_angle_alpha    71.3437
_cell_angle_beta     88.4082
_cell_angle_gamma    88.4082

_symmetry_Int_Tables_number  15
_chemical_formula_structural  MgGe2WO6
_chemical_formula_sum  Mg2Ge4W2O2
_cell_volume  284.87437189510797
_cell_formula_units_Z  2
loop_
  _symmetry_equiv_pos_site_id
 _symmetry_equiv_pos_as_xyz
 1  'x, y, z'
loop_
 _atom_site_type_symbol
 _atom_site_label
 _atom_site_symmetry_multiplicity
 _atom_site_fract_x
 _atom_site_fract_y
 _atom_site_fract_z
 _atom_site_fract_occupancy
 Ge  Ge1  1  0.68833  0.42683  0.19730  1
 Ge  Ge2  1  0.81167  0.80270  0.57317  1
 Ge  Ge3  1  0.31167  0.57317  0.80270  1
 Ge  Ge4  1  0.18833  0.19730  0.42683  1
 Mg  Mg1  1  0.75000  0.38711  0.61289  1
 Mg  Mg2  1  0.25000  0.61289  0.38711  1
 O  O1  1  0.48502  0.34767  0.43039  1
 O  O2  1  0.04131  0.85783  0.96152  1
 O  O3  1  0.51498  0.65233  0.56961  1
 O  O4  1  0.98502  0.43039  0.34767  1
 O  O5  1  0.01498  0.56961  0.65233  1
 O  O6  1  0.44446  0.32358  0.81786  1
 O  O7  1  0.95869  0.14217  0.03848  1
 O  O8  1  0.55554  0.67642  0.18214  1
 O  O9  1  0.05554  0.18214  0.67642  1
 O  O10  1  0.54131  0.96152  0.85783  1
 O  O11  1  0.94446  0.81786  0.32358  1
 O  O12  1  0.45869  0.03848  0.14217  1
 W  W1  1  0.25000  0.10437  0.89563  1
 W  W2  1  0.75000  0.89563  0.10437  1
