CIF file written using JARVIS-Tools package.
data_CO2
_symmetry_space_group_name_H-M  'P2_1/c'
_cell_length_a       4.43852
_cell_length_b       4.06656
_cell_length_c       9.6733
_cell_angle_alpha    90
_cell_angle_beta     128.254
_cell_angle_gamma    90

_symmetry_Int_Tables_number  14
_chemical_formula_structural  CO2
_chemical_formula_sum  C4O8
_cell_volume  137.10781930203774
_cell_formula_units_Z  4
loop_
  _symmetry_equiv_pos_site_id
 _symmetry_equiv_pos_as_xyz
 1  'x, y, z'
loop_
 _atom_site_type_symbol
 _atom_site_label
 _atom_site_symmetry_multiplicity
 _atom_site_fract_x
 _atom_site_fract_y
 _atom_site_fract_z
 _atom_site_fract_occupancy
 C  C1  1  0.31096  0.28235  0.19882  1
 C  C2  1  0.18904  0.78235  0.30118  1
 C  C3  1  0.68904  0.71765  0.80118  1
 C  C4  1  0.81096  0.21765  0.69882  1
 O  O1  1  0.40554  0.38351  0.11493  1
 O  O2  1  0.09446  0.88351  0.38507  1
 O  O3  1  0.59446  0.61649  0.88507  1
 O  O4  1  0.90554  0.11649  0.61493  1
 O  O5  1  0.22446  0.44600  0.29240  1
 O  O6  1  0.27554  0.94600  0.20760  1
 O  O7  1  0.77554  0.55400  0.70760  1
 O  O8  1  0.72446  0.05400  0.79240  1
