CIF file written using JARVIS-Tools package.
data_Ag2PdAu
_symmetry_space_group_name_H-M  'Immm'
_cell_length_a       10.9749
_cell_length_b       6.15059
_cell_length_c       6.15059
_cell_angle_alpha    45.9418
_cell_angle_beta     26.8509
_cell_angle_gamma    26.851

_symmetry_Int_Tables_number  71
_chemical_formula_structural  Ag2PdAu
_chemical_formula_sum  Ag2PdAu
_cell_volume  73.68404903523844
_cell_formula_units_Z  1
loop_
  _symmetry_equiv_pos_site_id
 _symmetry_equiv_pos_as_xyz
 1  'x, y, z'
loop_
 _atom_site_type_symbol
 _atom_site_label
 _atom_site_symmetry_multiplicity
 _atom_site_fract_x
 _atom_site_fract_y
 _atom_site_fract_z
 _atom_site_fract_occupancy
 Ag  Ag1  1  0.75273  0.00000  -0.00000  1
 Ag  Ag2  1  0.24727  -0.00000  0.00000  1
 Au  Au1  1  0.50000  -0.00000  -0.00000  1
 Pd  Pd1  1  0.00000  0.00000  0.00000  1
