CIF file written using JARVIS-Tools package.
data_Li8N3O
_symmetry_space_group_name_H-M  'Pm-3m'
_cell_length_a       4.75705
_cell_length_b       4.75705
_cell_length_c       4.75705
_cell_angle_alpha    90
_cell_angle_beta     90
_cell_angle_gamma    90

_symmetry_Int_Tables_number  221
_chemical_formula_structural  Li8N3O
_chemical_formula_sum  Li8N3O
_cell_volume  107.6494756929263
_cell_formula_units_Z  1
loop_
  _symmetry_equiv_pos_site_id
 _symmetry_equiv_pos_as_xyz
 1  'x, y, z'
loop_
 _atom_site_type_symbol
 _atom_site_label
 _atom_site_symmetry_multiplicity
 _atom_site_fract_x
 _atom_site_fract_y
 _atom_site_fract_z
 _atom_site_fract_occupancy
 Li  Li1  1  0.25777  0.74223  0.25777  1
 Li  Li2  1  0.74223  0.25777  0.25777  1
 Li  Li3  1  0.74223  0.74223  0.74223  1
 Li  Li4  1  0.25777  0.25777  0.74223  1
 Li  Li5  1  0.25777  0.74223  0.74223  1
 Li  Li6  1  0.74223  0.25777  0.74223  1
 Li  Li7  1  0.74223  0.74223  0.25777  1
 Li  Li8  1  0.25777  0.25777  0.25777  1
 N  N1  1  0.00000  0.50000  0.00000  1
 N  N2  1  0.50000  0.00000  0.00000  1
 N  N3  1  0.00000  0.00000  0.50000  1
 O  O1  1  0.50000  0.50000  0.50000  1
