CIF file written using JARVIS-Tools package.
data_HfMg3
_symmetry_space_group_name_H-M  'Pmm2'
_cell_length_a       6.52736
_cell_length_b       2.99978
_cell_length_c       5.07625
_cell_angle_alpha    90
_cell_angle_beta     90
_cell_angle_gamma    117.359

_symmetry_Int_Tables_number  25
_chemical_formula_structural  HfMg3
_chemical_formula_sum  HfMg3
_cell_volume  88.27794018908035
_cell_formula_units_Z  1
loop_
  _symmetry_equiv_pos_site_id
 _symmetry_equiv_pos_as_xyz
 1  'x, y, z'
loop_
 _atom_site_type_symbol
 _atom_site_label
 _atom_site_symmetry_multiplicity
 _atom_site_fract_x
 _atom_site_fract_y
 _atom_site_fract_z
 _atom_site_fract_occupancy
 Hf  Hf1  1  0.15542  0.65542  0.25000  1
 Mg  Mg1  1  0.65276  0.65276  0.25000  1
 Mg  Mg2  1  0.33829  0.33829  0.75000  1
 Mg  Mg3  1  0.85353  0.35353  0.75000  1
