CIF file written using JARVIS-Tools package.
data_Rb3P
_symmetry_space_group_name_H-M  'Fm-3m'
_cell_length_a       5.84601
_cell_length_b       5.84601
_cell_length_c       5.84601
_cell_angle_alpha    120.003
_cell_angle_beta     120.003
_cell_angle_gamma    89.9946

_symmetry_Int_Tables_number  225
_chemical_formula_structural  Rb3P
_chemical_formula_sum  Rb3P
_cell_volume  141.26803255917002
_cell_formula_units_Z  1
loop_
  _symmetry_equiv_pos_site_id
 _symmetry_equiv_pos_as_xyz
 1  'x, y, z'
loop_
 _atom_site_type_symbol
 _atom_site_label
 _atom_site_symmetry_multiplicity
 _atom_site_fract_x
 _atom_site_fract_y
 _atom_site_fract_z
 _atom_site_fract_occupancy
 P  P1  1  0.00000  0.00000  0.00000  1
 Rb  Rb1  1  0.75000  0.25000  0.50000  1
 Rb  Rb2  1  0.25000  0.75000  0.50000  1
 Rb  Rb3  1  0.50000  0.50000  -0.00000  1
