CIF file written using JARVIS-Tools package.
data_VPO4
_symmetry_space_group_name_H-M  'Cmcm'
_cell_length_a       4.71888
_cell_length_b       4.71889
_cell_length_c       6.32235
_cell_angle_alpha    90
_cell_angle_beta     90
_cell_angle_gamma    67.7348

_symmetry_Int_Tables_number  63
_chemical_formula_structural  VPO4
_chemical_formula_sum  V2P2O8
_cell_volume  130.28839636148294
_cell_formula_units_Z  2
loop_
  _symmetry_equiv_pos_site_id
 _symmetry_equiv_pos_as_xyz
 1  'x, y, z'
loop_
 _atom_site_type_symbol
 _atom_site_label
 _atom_site_symmetry_multiplicity
 _atom_site_fract_x
 _atom_site_fract_y
 _atom_site_fract_z
 _atom_site_fract_occupancy
 O  O1  1  0.24472  0.24472  0.04779  1
 O  O2  1  0.24472  0.24472  0.45221  1
 O  O3  1  0.22254  0.71202  0.25000  1
 O  O4  1  0.28798  0.77746  0.75000  1
 O  O5  1  0.71202  0.22254  0.25000  1
 O  O6  1  0.77746  0.28798  0.75000  1
 O  O7  1  0.75528  0.75528  0.54779  1
 O  O8  1  0.75528  0.75528  0.95221  1
 P  P1  1  0.35130  0.35130  0.25000  1
 P  P2  1  0.64870  0.64870  0.75000  1
 V  V1  1  0.00000  0.00000  0.00000  1
 V  V2  1  0.00000  0.00000  0.50000  1
