CIF file written using JARVIS-Tools package.
data_Sc2SO2
_symmetry_space_group_name_H-M  'P6_3/mmc'
_cell_length_a       3.5383
_cell_length_b       3.5383
_cell_length_c       12.5751
_cell_angle_alpha    90
_cell_angle_beta     90
_cell_angle_gamma    120

_symmetry_Int_Tables_number  194
_chemical_formula_structural  Sc2SO2
_chemical_formula_sum  Sc4S2O4
_cell_volume  136.34217810747995
_cell_formula_units_Z  2
loop_
  _symmetry_equiv_pos_site_id
 _symmetry_equiv_pos_as_xyz
 1  'x, y, z'
loop_
 _atom_site_type_symbol
 _atom_site_label
 _atom_site_symmetry_multiplicity
 _atom_site_fract_x
 _atom_site_fract_y
 _atom_site_fract_z
 _atom_site_fract_occupancy
 O  O1  1  0.66667  0.33333  0.43444  1
 O  O2  1  0.33333  0.66667  0.93444  1
 O  O3  1  0.33333  0.66667  0.56556  1
 O  O4  1  0.66667  0.33333  0.06556  1
 S  S1  1  0.00000  0.00000  0.75000  1
 S  S2  1  0.00000  0.00000  0.25000  1
 Sc  Sc1  1  0.33333  0.66667  0.39292  1
 Sc  Sc2  1  0.66667  0.33333  0.89292  1
 Sc  Sc3  1  0.66667  0.33333  0.60708  1
 Sc  Sc4  1  0.33333  0.66667  0.10708  1
