CIF file written using JARVIS-Tools package.
data_NaSO2
_symmetry_space_group_name_H-M  'P2/c'
_cell_length_a       6.44623
_cell_length_b       6.41799
_cell_length_c       6.61103
_cell_angle_alpha    90
_cell_angle_beta     120.014
_cell_angle_gamma    90

_symmetry_Int_Tables_number  13
_chemical_formula_structural  NaSO2
_chemical_formula_sum  Na4S4O8
_cell_volume  236.83306083874257
_cell_formula_units_Z  4
loop_
  _symmetry_equiv_pos_site_id
 _symmetry_equiv_pos_as_xyz
 1  'x, y, z'
loop_
 _atom_site_type_symbol
 _atom_site_label
 _atom_site_symmetry_multiplicity
 _atom_site_fract_x
 _atom_site_fract_y
 _atom_site_fract_z
 _atom_site_fract_occupancy
 Na  Na1  1  0.26135  0.14598  0.98097  1
 Na  Na2  1  0.73865  0.85402  0.01903  1
 Na  Na3  1  0.73865  0.14598  0.51903  1
 Na  Na4  1  0.26135  0.85402  0.48097  1
 O  O1  1  0.12071  0.24118  0.58958  1
 O  O2  1  0.87929  0.24118  0.91042  1
 O  O3  1  0.87929  0.75882  0.41042  1
 O  O4  1  0.12071  0.75882  0.08958  1
 O  O5  1  0.32373  0.19480  0.36029  1
 O  O6  1  0.32373  0.80520  0.86029  1
 O  O7  1  0.67627  0.80520  0.63971  1
 O  O8  1  0.67627  0.19480  0.13971  1
 S  S1  1  0.19751  0.35215  0.43497  1
 S  S2  1  0.80249  0.35215  0.06503  1
 S  S3  1  0.80249  0.64785  0.56503  1
 S  S4  1  0.19751  0.64785  0.93497  1
