CIF file written using JARVIS-Tools package.
data_Zn2In2S5
_symmetry_space_group_name_H-M  'R3m'
_cell_length_a       15.522
_cell_length_b       15.522
_cell_length_c       15.522
_cell_angle_alpha    14.4558
_cell_angle_beta     14.4558
_cell_angle_gamma    14.4558

_symmetry_Int_Tables_number  160
_chemical_formula_structural  Zn2In2S5
_chemical_formula_sum  Zn2In2S5
_cell_volume  202.89619628721832
_cell_formula_units_Z  1
loop_
  _symmetry_equiv_pos_site_id
 _symmetry_equiv_pos_as_xyz
 1  'x, y, z'
loop_
 _atom_site_type_symbol
 _atom_site_label
 _atom_site_symmetry_multiplicity
 _atom_site_fract_x
 _atom_site_fract_y
 _atom_site_fract_z
 _atom_site_fract_occupancy
 In  In1  1  0.10285  0.10285  0.10285  1
 In  In2  1  0.92462  0.92462  0.92462  1
 S  S1  1  0.00627  0.00627  0.00627  1
 S  S2  1  0.46869  0.46869  0.46869  1
 S  S3  1  0.61400  0.61400  0.61400  1
 S  S4  1  0.74115  0.74115  0.74115  1
 S  S5  1  0.86988  0.86988  0.86988  1
 Zn  Zn1  1  0.68692  0.68692  0.68692  1
 Zn  Zn2  1  0.51761  0.51761  0.51761  1
