CIF file written using JARVIS-Tools package.
data_SnPSe3
_symmetry_space_group_name_H-M  'Pc'
_cell_length_a       6.96324
_cell_length_b       7.76289
_cell_length_c       9.77484
_cell_angle_alpha    90
_cell_angle_beta     91.5301
_cell_angle_gamma    90

_symmetry_Int_Tables_number  7
_chemical_formula_structural  SnPSe3
_chemical_formula_sum  Sn4P4Se2
_cell_volume  528.1889369020596
_cell_formula_units_Z  4
loop_
  _symmetry_equiv_pos_site_id
 _symmetry_equiv_pos_as_xyz
 1  'x, y, z'
loop_
 _atom_site_type_symbol
 _atom_site_label
 _atom_site_symmetry_multiplicity
 _atom_site_fract_x
 _atom_site_fract_y
 _atom_site_fract_z
 _atom_site_fract_occupancy
 P  P1  1  0.56103  0.64096  0.43483  1
 P  P2  1  0.06103  0.35904  0.93483  1
 P  P3  1  0.93944  0.14463  0.06474  1
 P  P4  1  0.43944  0.85537  0.56474  1
 Se  Se1  1  0.17461  0.95040  0.45393  1
 Se  Se2  1  0.15810  0.93845  0.05506  1
 Se  Se3  1  0.33211  0.44245  0.44347  1
 Se  Se4  1  0.32942  0.45275  0.03738  1
 Se  Se5  1  0.11066  0.24121  0.73159  1
 Se  Se6  1  0.39265  0.74489  0.77034  1
 Se  Se7  1  0.83211  0.55755  0.94347  1
 Se  Se8  1  0.61066  0.75879  0.23159  1
 Se  Se9  1  0.89265  0.25511  0.27034  1
 Se  Se10  1  0.65810  0.06155  0.55506  1
 Se  Se11  1  0.82942  0.54725  0.53738  1
 Se  Se12  1  0.67461  0.04960  0.95393  1
 Sn  Sn1  1  0.03159  0.63820  0.28397  1
 Sn  Sn2  1  0.48168  0.12779  0.27948  1
 Sn  Sn3  1  0.53159  0.36180  0.78397  1
 Sn  Sn4  1  0.98168  0.87221  0.77948  1
