CIF file written using JARVIS-Tools package.
data_BSbO3
_symmetry_space_group_name_H-M  'C2/c'
_cell_length_a       4.91917
_cell_length_b       4.91907
_cell_length_c       11.6218
_cell_angle_alpha    83.821
_cell_angle_beta     96.1793
_cell_angle_gamma    90.503

_symmetry_Int_Tables_number  15
_chemical_formula_structural  BSbO3
_chemical_formula_sum  B4Sb4O2
_cell_volume  277.9624295588889
_cell_formula_units_Z  4
loop_
  _symmetry_equiv_pos_site_id
 _symmetry_equiv_pos_as_xyz
 1  'x, y, z'
loop_
 _atom_site_type_symbol
 _atom_site_label
 _atom_site_symmetry_multiplicity
 _atom_site_fract_x
 _atom_site_fract_y
 _atom_site_fract_z
 _atom_site_fract_occupancy
 B  B1  1  0.14653  0.36477  0.87563  1
 B  B2  1  0.36477  0.14654  0.62438  1
 B  B3  1  0.63523  0.85346  0.37562  1
 B  B4  1  0.85347  0.63523  0.12437  1
 O  O1  1  0.15646  0.33198  0.57810  1
 O  O2  1  0.66802  0.84353  0.07810  1
 O  O3  1  0.21886  0.58121  0.80100  1
 O  O4  1  0.58121  0.21890  0.69901  1
 O  O5  1  0.33198  0.15647  0.92190  1
 O  O6  1  0.33120  0.88166  0.59588  1
 O  O7  1  0.66880  0.11834  0.40412  1
 O  O8  1  0.41879  0.78110  0.30099  1
 O  O9  1  0.11834  0.66881  0.09587  1
 O  O10  1  0.78114  0.41879  0.19900  1
 O  O11  1  0.88166  0.33119  0.90413  1
 O  O12  1  0.84354  0.66802  0.42190  1
 Sb  Sb1  1  -0.00151  0.33499  0.36275  1
 Sb  Sb2  1  0.66499  0.00152  0.86275  1
 Sb  Sb3  1  0.00151  0.66501  0.63725  1
 Sb  Sb4  1  0.33501  0.99848  0.13725  1
