CIF file written using JARVIS-Tools package.
data_MoCl5
_symmetry_space_group_name_H-M  'P-1'
_cell_length_a       6.02878
_cell_length_b       6.5695
_cell_length_c       9.0111
_cell_angle_alpha    108.545
_cell_angle_beta     90.4082
_cell_angle_gamma    116.346

_symmetry_Int_Tables_number  2
_chemical_formula_structural  MoCl5
_chemical_formula_sum  Mo2Cl0
_cell_volume  298.56376669565896
_cell_formula_units_Z  2
loop_
  _symmetry_equiv_pos_site_id
 _symmetry_equiv_pos_as_xyz
 1  'x, y, z'
loop_
 _atom_site_type_symbol
 _atom_site_label
 _atom_site_symmetry_multiplicity
 _atom_site_fract_x
 _atom_site_fract_y
 _atom_site_fract_z
 _atom_site_fract_occupancy
 Cl  Cl1  1  0.24875  0.68915  0.45462  1
 Cl  Cl2  1  0.12220  0.11746  0.35121  1
 Cl  Cl3  1  0.75125  0.31085  0.54538  1
 Cl  Cl4  1  0.45007  0.08288  0.83905  1
 Cl  Cl5  1  0.87780  0.88254  0.64879  1
 Cl  Cl6  1  0.54993  0.91712  0.16095  1
 Cl  Cl7  1  0.07271  0.31248  0.06322  1
 Cl  Cl8  1  0.30877  0.50316  0.74385  1
 Cl  Cl9  1  0.69123  0.49684  0.25615  1
 Cl  Cl10  1  0.92729  0.68752  0.93678  1
 Mo  Mo1  1  0.10665  0.71842  0.71985  1
 Mo  Mo2  1  0.89335  0.28158  0.28015  1
