CIF file written using JARVIS-Tools package.
data_Al2S3
_symmetry_space_group_name_H-M  'P1'
_cell_length_a       6.99282
_cell_length_b       6.92322
_cell_length_c       17.7375
_cell_angle_alpha    80.5236
_cell_angle_beta     108.937
_cell_angle_gamma    123.034

_symmetry_Int_Tables_number  1
_chemical_formula_structural  Al2S3
_chemical_formula_sum  Al2S8
_cell_volume  680.8676595682113
_cell_formula_units_Z  6
loop_
  _symmetry_equiv_pos_site_id
 _symmetry_equiv_pos_as_xyz
 1  'x, y, z'
loop_
 _atom_site_type_symbol
 _atom_site_label
 _atom_site_symmetry_multiplicity
 _atom_site_fract_x
 _atom_site_fract_y
 _atom_site_fract_z
 _atom_site_fract_occupancy
 Al  Al1  1  0.71513  0.15660  0.84423  1
 Al  Al2  1  0.67399  0.71541  0.83636  1
 Al  Al3  1  0.36646  0.27165  0.21127  1
 Al  Al4  1  0.26654  0.71833  0.95335  1
 Al  Al5  1  0.54211  0.99621  0.46915  1
 Al  Al6  1  0.23083  0.81070  0.12465  1
 Al  Al7  1  0.55492  0.40445  0.60066  1
 Al  Al8  1  0.45243  0.76311  0.26367  1
 Al  Al9  1  0.26952  0.17103  0.92395  1
 Al  Al10  1  0.21150  0.90546  0.64972  1
 Al  Al11  1  0.64857  0.53992  0.40767  1
 Al  Al12  1  0.94405  0.73134  0.26267  1
 S  S1  1  0.05630  0.48007  0.04670  1
 S  S2  1  0.73842  0.35934  0.23024  1
 S  S3  1  0.33375  0.90374  0.33598  1
 S  S4  1  0.33485  0.03990  0.53342  1
 S  S5  1  0.43837  0.05248  0.03674  1
 S  S6  1  0.58258  0.93052  0.73646  1
 S  S7  1  0.29155  0.38343  0.30652  1
 S  S8  1  0.06602  0.85649  0.84521  1
 S  S9  1  0.83555  0.87323  0.33749  1
 S  S10  1  0.58858  0.68205  0.50214  1
 S  S11  1  0.60403  0.36921  0.88174  1
 S  S12  1  0.01341  0.94719  0.14857  1
 S  S13  1  0.84103  0.35688  0.46051  1
 S  S14  1  0.29048  0.25666  0.67166  1
 S  S15  1  0.12005  0.39558  0.87221  1
 S  S16  1  0.66063  0.87343  0.93885  1
 S  S17  1  0.93548  0.55181  0.67384  1
 S  S18  1  0.39284  0.50381  0.09849  1
