CIF file written using JARVIS-Tools package.
data_CdI2
_symmetry_space_group_name_H-M  'P-3m1'
_cell_length_a       4.28504
_cell_length_b       4.28504
_cell_length_c       34.3872
_cell_angle_alpha    90
_cell_angle_beta     90
_cell_angle_gamma    120

_symmetry_Int_Tables_number  164
_chemical_formula_structural  CdI2
_chemical_formula_sum  Cd5I0
_cell_volume  546.8111100426711
_cell_formula_units_Z  5
loop_
  _symmetry_equiv_pos_site_id
 _symmetry_equiv_pos_as_xyz
 1  'x, y, z'
loop_
 _atom_site_type_symbol
 _atom_site_label
 _atom_site_symmetry_multiplicity
 _atom_site_fract_x
 _atom_site_fract_y
 _atom_site_fract_z
 _atom_site_fract_occupancy
 Cd  Cd1  1  0.66667  0.33333  0.05002  1
 Cd  Cd2  1  0.00000  0.00000  0.65003  1
 Cd  Cd3  1  0.33333  0.66667  0.44998  1
 Cd  Cd4  1  0.00000  0.00000  0.84997  1
 Cd  Cd5  1  0.00000  0.00000  0.25000  1
 I  I1  1  0.66667  0.33333  0.19957  1
 I  I2  1  0.33333  0.66667  0.30043  1
 I  I3  1  0.66667  0.33333  0.39953  1
 I  I4  1  0.33333  0.66667  0.70045  1
 I  I5  1  0.33333  0.66667  0.10047  1
 I  I6  1  0.66667  0.33333  0.59957  1
 I  I7  1  0.00000  0.00000  -0.00040  1
 I  I8  1  0.33333  0.66667  0.90043  1
 I  I9  1  0.66667  0.33333  0.79955  1
 I  I10  1  0.00000  0.00000  0.50040  1
