CIF file written using JARVIS-Tools package.
data_YbMnGe
_symmetry_space_group_name_H-M  'Pnma'
_cell_length_a       4.23568
_cell_length_b       7.16377
_cell_length_c       7.41043
_cell_angle_alpha    90
_cell_angle_beta     90
_cell_angle_gamma    90

_symmetry_Int_Tables_number  62
_chemical_formula_structural  YbMnGe
_chemical_formula_sum  Yb4Mn4Ge4
_cell_volume  224.8578160043073
_cell_formula_units_Z  4
loop_
  _symmetry_equiv_pos_site_id
 _symmetry_equiv_pos_as_xyz
 1  'x, y, z'
loop_
 _atom_site_type_symbol
 _atom_site_label
 _atom_site_symmetry_multiplicity
 _atom_site_fract_x
 _atom_site_fract_y
 _atom_site_fract_z
 _atom_site_fract_occupancy
 Ge  Ge1  1  0.25000  0.28835  0.61254  1
 Ge  Ge2  1  0.75000  0.21165  0.11254  1
 Ge  Ge3  1  0.25000  0.78835  0.88746  1
 Ge  Ge4  1  0.75000  0.71165  0.38746  1
 Mn  Mn1  1  0.75000  0.36913  0.44095  1
 Mn  Mn2  1  0.25000  0.13087  0.94095  1
 Mn  Mn3  1  0.75000  0.86913  0.05905  1
 Mn  Mn4  1  0.25000  0.63087  0.55905  1
 Yb  Yb1  1  0.25000  0.50614  0.18252  1
 Yb  Yb2  1  0.75000  0.49386  0.81748  1
 Yb  Yb3  1  0.25000  0.00614  0.31748  1
 Yb  Yb4  1  0.75000  0.99386  0.68252  1
