CIF file written using JARVIS-Tools package.
data_Mg2ZnGa
_symmetry_space_group_name_H-M  'Immm'
_cell_length_a       11.3056
_cell_length_b       6.38667
_cell_length_c       6.38666
_cell_angle_alpha    28.196
_cell_angle_beta     27.7366
_cell_angle_gamma    27.7366

_symmetry_Int_Tables_number  71
_chemical_formula_structural  Mg2ZnGa
_chemical_formula_sum  Mg2ZnGa
_cell_volume  89.09276055101085
_cell_formula_units_Z  1
loop_
  _symmetry_equiv_pos_site_id
 _symmetry_equiv_pos_as_xyz
 1  'x, y, z'
loop_
 _atom_site_type_symbol
 _atom_site_label
 _atom_site_symmetry_multiplicity
 _atom_site_fract_x
 _atom_site_fract_y
 _atom_site_fract_z
 _atom_site_fract_occupancy
 Ga  Ga1  1  0.50000  0.00000  -0.00000  1
 Mg  Mg1  1  0.75387  -0.00000  0.00000  1
 Mg  Mg2  1  0.24613  0.00000  -0.00000  1
 Zn  Zn1  1  0.00000  0.00000  0.00000  1
