CIF file written using JARVIS-Tools package.
data_LiCaAlN2
_symmetry_space_group_name_H-M  'P2_1/c'
_cell_length_a       5.77524
_cell_length_b       6.86263
_cell_length_c       5.80503
_cell_angle_alpha    90
_cell_angle_beta     90.1242
_cell_angle_gamma    90

_symmetry_Int_Tables_number  14
_chemical_formula_structural  LiCaAlN2
_chemical_formula_sum  Li4Ca4Al4N8
_cell_volume  230.072336913849
_cell_formula_units_Z  4
loop_
  _symmetry_equiv_pos_site_id
 _symmetry_equiv_pos_as_xyz
 1  'x, y, z'
loop_
 _atom_site_type_symbol
 _atom_site_label
 _atom_site_symmetry_multiplicity
 _atom_site_fract_x
 _atom_site_fract_y
 _atom_site_fract_z
 _atom_site_fract_occupancy
 Al  Al1  1  0.37925  0.35978  0.42535  1
 Al  Al2  1  0.62075  0.64022  0.57465  1
 Al  Al3  1  0.37925  0.14022  0.92535  1
 Al  Al4  1  0.62075  0.85978  0.07465  1
 Ca  Ca1  1  0.02800  0.87118  0.74114  1
 Ca  Ca2  1  0.97200  0.37118  0.75886  1
 Ca  Ca3  1  0.97200  0.12882  0.25886  1
 Ca  Ca4  1  0.02800  0.62882  0.24114  1
 Li  Li1  1  0.36668  0.59838  0.90916  1
 Li  Li2  1  0.63332  0.40162  0.09084  1
 Li  Li3  1  0.63332  0.09838  0.59084  1
 Li  Li4  1  0.36668  0.90162  0.40916  1
 N  N1  1  0.71243  0.39303  0.43321  1
 N  N2  1  0.26857  0.14553  0.60586  1
 N  N3  1  0.73143  0.64553  0.89414  1
 N  N4  1  0.73143  0.85447  0.39414  1
 N  N5  1  0.26857  0.35447  0.10586  1
 N  N6  1  0.28757  0.60697  0.56679  1
 N  N7  1  0.71243  0.10697  0.93321  1
 N  N8  1  0.28757  0.89303  0.06679  1
