CIF file written using JARVIS-Tools package.
data_K2YNb5O15
_symmetry_space_group_name_H-M  'Cmmm'
_cell_length_a       3.96908
_cell_length_b       9.32427
_cell_length_c       9.32426
_cell_angle_alpha    111.87
_cell_angle_beta     90
_cell_angle_gamma    90

_symmetry_Int_Tables_number  65
_chemical_formula_structural  K2YNb5O15
_chemical_formula_sum  K2YNb5O5
_cell_volume  320.2435823837876
_cell_formula_units_Z  1
loop_
  _symmetry_equiv_pos_site_id
 _symmetry_equiv_pos_as_xyz
 1  'x, y, z'
loop_
 _atom_site_type_symbol
 _atom_site_label
 _atom_site_symmetry_multiplicity
 _atom_site_fract_x
 _atom_site_fract_y
 _atom_site_fract_z
 _atom_site_fract_occupancy
 K  K1  1  0.00000  0.69984  0.30016  1
 K  K2  1  0.00000  0.30016  0.69984  1
 Nb  Nb1  1  0.50000  0.05811  0.31745  1
 Nb  Nb2  1  0.50000  0.31745  0.05811  1
 Nb  Nb3  1  0.50000  0.94189  0.68255  1
 Nb  Nb4  1  0.50000  0.68255  0.94189  1
 Nb  Nb5  1  0.50000  0.50000  0.50000  1
 O  O1  1  0.50000  0.12548  0.12548  1
 O  O2  1  0.50000  0.83486  0.16514  1
 O  O3  1  0.50000  0.45828  0.27218  1
 O  O4  1  0.50000  0.54172  0.72782  1
 O  O5  1  0.50000  0.87452  0.87452  1
 O  O6  1  0.00000  0.04613  0.27608  1
 O  O7  1  0.50000  0.16514  0.83486  1
 O  O8  1  0.50000  0.00000  0.50000  1
 O  O9  1  0.00000  0.27608  0.04613  1
 O  O10  1  0.00000  0.95387  0.72392  1
 O  O11  1  0.50000  0.27218  0.45828  1
 O  O12  1  0.00000  0.72392  0.95387  1
 O  O13  1  0.00000  0.50000  0.50000  1
 O  O14  1  0.50000  0.72782  0.54172  1
 O  O15  1  0.50000  0.50000  -0.00000  1
 Y  Y1  1  0.00000  0.00000  0.00000  1
