CIF file written using JARVIS-Tools package.
data_CdI2
_symmetry_space_group_name_H-M  'P3m1'
_cell_length_a       4.28667
_cell_length_b       4.28666
_cell_length_c       61.901
_cell_angle_alpha    90
_cell_angle_beta     90
_cell_angle_gamma    120

_symmetry_Int_Tables_number  156
_chemical_formula_structural  CdI2
_chemical_formula_sum  Cd9I8
_cell_volume  985.0717473823873
_cell_formula_units_Z  9
loop_
  _symmetry_equiv_pos_site_id
 _symmetry_equiv_pos_as_xyz
 1  'x, y, z'
loop_
 _atom_site_type_symbol
 _atom_site_label
 _atom_site_symmetry_multiplicity
 _atom_site_fract_x
 _atom_site_fract_y
 _atom_site_fract_z
 _atom_site_fract_occupancy
 Cd  Cd1  1  0.00000  0.00000  0.80554  1
 Cd  Cd2  1  0.66667  0.33333  0.58331  1
 Cd  Cd3  1  0.00000  0.00000  0.47217  1
 Cd  Cd4  1  0.00000  0.00000  0.91664  1
 Cd  Cd5  1  0.00000  0.00000  0.69446  1
 Cd  Cd6  1  0.66667  0.33333  0.02778  1
 Cd  Cd7  1  0.00000  0.00000  0.13890  1
 Cd  Cd8  1  0.00000  0.00000  0.36114  1
 Cd  Cd9  1  0.66667  0.33333  0.25000  1
 I  I1  1  0.33333  0.66667  0.61134  1
 I  I2  1  0.66667  0.33333  0.33313  1
 I  I3  1  0.33333  0.66667  0.72247  1
 I  I4  1  0.00000  0.00000  0.55531  1
 I  I5  1  0.00000  0.00000  0.22200  1
 I  I6  1  0.66667  0.33333  0.66645  1
 I  I7  1  0.33333  0.66667  0.05581  1
 I  I8  1  0.33333  0.66667  0.27802  1
 I  I9  1  0.33333  0.66667  0.16692  1
 I  I10  1  0.00000  0.00000  -0.00022  1
 I  I11  1  0.66667  0.33333  0.44418  1
 I  I12  1  0.66667  0.33333  0.88864  1
 I  I13  1  0.66667  0.33333  0.77754  1
 I  I14  1  0.33333  0.66667  0.38915  1
 I  I15  1  0.33333  0.66667  0.83356  1
 I  I16  1  0.66667  0.33333  0.11090  1
 I  I17  1  0.33333  0.66667  0.94467  1
 I  I18  1  0.33333  0.66667  0.50020  1
