CIF file written using JARVIS-Tools package.
data_Li7VO4F2
_symmetry_space_group_name_H-M  'P1'
_cell_length_a       5.41049
_cell_length_b       5.77312
_cell_length_c       9.80529
_cell_angle_alpha    71.4365
_cell_angle_beta     105.682
_cell_angle_gamma    116.633

_symmetry_Int_Tables_number  1
_chemical_formula_structural  Li7VO4F2
_chemical_formula_sum  Li4V2O8F4
_cell_volume  256.57213786635987
_cell_formula_units_Z  2
loop_
  _symmetry_equiv_pos_site_id
 _symmetry_equiv_pos_as_xyz
 1  'x, y, z'
loop_
 _atom_site_type_symbol
 _atom_site_label
 _atom_site_symmetry_multiplicity
 _atom_site_fract_x
 _atom_site_fract_y
 _atom_site_fract_z
 _atom_site_fract_occupancy
 F  F1  1  0.67181  0.91429  0.81162  1
 F  F2  1  0.22934  0.12256  0.60569  1
 F  F3  1  0.80783  0.19798  0.05654  1
 F  F4  1  0.76227  0.53648  0.68652  1
 Li  Li1  1  0.48288  0.38273  0.24900  1
 Li  Li2  1  0.56179  0.05697  0.61726  1
 Li  Li3  1  0.97236  0.46788  0.86433  1
 Li  Li4  1  0.03446  0.76124  0.55777  1
 Li  Li5  1  0.23077  0.06930  0.79989  1
 Li  Li6  1  0.48415  0.82388  0.18378  1
 Li  Li7  1  0.01582  0.10866  0.25236  1
 Li  Li8  1  0.46849  0.58140  0.73713  1
 Li  Li9  1  0.51623  0.29381  0.04693  1
 Li  Li10  1  0.96661  0.64908  0.32128  1
 Li  Li11  1  0.00220  0.52289  0.11824  1
 Li  Li12  1  0.95793  0.20595  0.45270  1
 Li  Li13  1  0.44167  0.68187  0.95300  1
 Li  Li14  1  0.48547  0.98518  0.38095  1
 O  O1  1  0.77536  0.86479  0.38155  1
 O  O2  1  0.21060  0.45621  0.30271  1
 O  O3  1  0.24660  0.32861  0.88677  1
 O  O4  1  0.16256  0.77410  0.95905  1
 O  O5  1  0.67812  0.32000  0.44423  1
 O  O6  1  0.27846  0.04269  0.19079  1
 O  O7  1  0.71811  0.64155  0.11515  1
 O  O8  1  0.33990  0.70974  0.54028  1
 V  V1  1  0.00254  -0.02519  0.01030  1
 V  V2  1  0.49567  0.52537  0.47420  1
