CIF file written using JARVIS-Tools package.
data_SrTa2H2O7
_symmetry_space_group_name_H-M  'I4/mmm'
_cell_length_a       3.97079
_cell_length_b       3.97079
_cell_length_c       9.84086
_cell_angle_alpha    101.639
_cell_angle_beta     101.639
_cell_angle_gamma    90

_symmetry_Int_Tables_number  139
_chemical_formula_structural  SrTa2H2O7
_chemical_formula_sum  SrTa2H2O7
_cell_volume  148.7129774633683
_cell_formula_units_Z  1
loop_
  _symmetry_equiv_pos_site_id
 _symmetry_equiv_pos_as_xyz
 1  'x, y, z'
loop_
 _atom_site_type_symbol
 _atom_site_label
 _atom_site_symmetry_multiplicity
 _atom_site_fract_x
 _atom_site_fract_y
 _atom_site_fract_z
 _atom_site_fract_occupancy
 H  H1  1  0.76152  0.76152  0.52304  1
 H  H2  1  0.23848  0.23848  0.47696  1
 O  O1  1  0.50000  0.50000  -0.00000  1
 O  O2  1  0.28987  0.28987  0.57974  1
 O  O3  1  0.71013  0.71013  0.42026  1
 O  O4  1  0.40169  0.90169  0.80338  1
 O  O5  1  0.90169  0.40169  0.80338  1
 O  O6  1  0.09831  0.59831  0.19662  1
 O  O7  1  0.59831  0.09831  0.19662  1
 Sr  Sr1  1  0.00000  0.00000  0.00000  1
 Ta  Ta1  1  0.61000  0.61000  0.22001  1
 Ta  Ta2  1  0.39000  0.39000  0.77999  1
