CIF file written using JARVIS-Tools package.
data_Zn2SiO4
_symmetry_space_group_name_H-M  'P2_1/c'
_cell_length_a       5.55335
_cell_length_b       7.78502
_cell_length_c       9.18427
_cell_angle_alpha    90
_cell_angle_beta     121.99
_cell_angle_gamma    90

_symmetry_Int_Tables_number  14
_chemical_formula_structural  Zn2SiO4
_chemical_formula_sum  Zn8Si4O6
_cell_volume  336.76381906192853
_cell_formula_units_Z  4
loop_
  _symmetry_equiv_pos_site_id
 _symmetry_equiv_pos_as_xyz
 1  'x, y, z'
loop_
 _atom_site_type_symbol
 _atom_site_label
 _atom_site_symmetry_multiplicity
 _atom_site_fract_x
 _atom_site_fract_y
 _atom_site_fract_z
 _atom_site_fract_occupancy
 O  O1  1  0.38744  0.15592  0.87787  1
 O  O2  1  0.24554  0.44300  0.00695  1
 O  O3  1  0.61256  0.84408  0.12213  1
 O  O4  1  0.75446  0.55700  0.99305  1
 O  O5  1  0.75446  0.94300  0.49305  1
 O  O6  1  0.70815  0.23690  0.20663  1
 O  O7  1  0.70815  0.26310  0.70663  1
 O  O8  1  0.24554  0.05700  0.50695  1
 O  O9  1  0.29185  0.73690  0.29337  1
 O  O10  1  0.17167  0.12961  0.07752  1
 O  O11  1  0.17167  0.37039  0.57752  1
 O  O12  1  0.82833  0.87039  0.92248  1
 O  O13  1  0.82833  0.62961  0.42248  1
 O  O14  1  0.61256  0.65592  0.62213  1
 O  O15  1  0.38744  0.34408  0.37787  1
 O  O16  1  0.29185  0.76310  0.79337  1
 Si  Si1  1  0.37811  0.24667  0.03778  1
 Si  Si2  1  0.37811  0.25333  0.53778  1
 Si  Si3  1  0.62189  0.75333  0.96222  1
 Si  Si4  1  0.62189  0.74667  0.46222  1
 Zn  Zn1  1  0.13233  0.00097  0.68983  1
 Zn  Zn2  1  0.13233  0.49903  0.18983  1
 Zn  Zn3  1  0.86767  -0.00097  0.31017  1
 Zn  Zn4  1  0.86767  0.50097  0.81017  1
 Zn  Zn5  1  0.76198  0.37698  0.40180  1
 Zn  Zn6  1  0.76198  0.12302  0.90180  1
 Zn  Zn7  1  0.23802  0.62302  0.59820  1
 Zn  Zn8  1  0.23802  0.87698  0.09820  1
