CIF file written using JARVIS-Tools package.
data_YbF
_symmetry_space_group_name_H-M  'P3m1'
_cell_length_a       3.84324
_cell_length_b       3.84324
_cell_length_c       6.14632
_cell_angle_alpha    90.0601
_cell_angle_beta     89.9399
_cell_angle_gamma    120.004

_symmetry_Int_Tables_number  156
_chemical_formula_structural  YbF
_chemical_formula_sum  Yb2F2
_cell_volume  78.61835107954059
_cell_formula_units_Z  2
loop_
  _symmetry_equiv_pos_site_id
 _symmetry_equiv_pos_as_xyz
 1  'x, y, z'
loop_
 _atom_site_type_symbol
 _atom_site_label
 _atom_site_symmetry_multiplicity
 _atom_site_fract_x
 _atom_site_fract_y
 _atom_site_fract_z
 _atom_site_fract_occupancy
 F  F1  1  0.99989  0.00011  0.00030  1
 F  F2  1  0.33318  0.66682  0.49908  1
 Yb  Yb1  1  0.00013  0.99987  0.37493  1
 Yb  Yb2  1  0.33347  0.66653  0.87570  1
