CIF file written using JARVIS-Tools package.
data_HAuO2
_symmetry_space_group_name_H-M  'C2/m'
_cell_length_a       3.09778
_cell_length_b       3.69607
_cell_length_c       4.50131
_cell_angle_alpha    81.7897
_cell_angle_beta     90.0001
_cell_angle_gamma    114.775

_symmetry_Int_Tables_number  12
_chemical_formula_structural  HAuO2
_chemical_formula_sum  HAuO2
_cell_volume  46.21211844037036
_cell_formula_units_Z  1
loop_
  _symmetry_equiv_pos_site_id
 _symmetry_equiv_pos_as_xyz
 1  'x, y, z'
loop_
 _atom_site_type_symbol
 _atom_site_label
 _atom_site_symmetry_multiplicity
 _atom_site_fract_x
 _atom_site_fract_y
 _atom_site_fract_z
 _atom_site_fract_occupancy
 Au  Au1  1  0.50000  0.00000  0.00000  1
 H  H1  1  0.00000  0.00000  0.50000  1
 O  O1  1  0.08487  0.16974  0.71893  1
 O  O2  1  0.91513  0.83026  0.28107  1
