CIF file written using JARVIS-Tools package.
data_MnCSO7
_symmetry_space_group_name_H-M  'P2_1/m'
_cell_length_a       7.8335
_cell_length_b       6.14046
_cell_length_c       5.03293
_cell_angle_alpha    90
_cell_angle_beta     83.4276
_cell_angle_gamma    90

_symmetry_Int_Tables_number  11
_chemical_formula_structural  MnCSO7
_chemical_formula_sum  Mn2C2S2O4
_cell_volume  240.49903278066105
_cell_formula_units_Z  2
loop_
  _symmetry_equiv_pos_site_id
 _symmetry_equiv_pos_as_xyz
 1  'x, y, z'
loop_
 _atom_site_type_symbol
 _atom_site_label
 _atom_site_symmetry_multiplicity
 _atom_site_fract_x
 _atom_site_fract_y
 _atom_site_fract_z
 _atom_site_fract_occupancy
 C  C1  1  0.01934  0.75000  0.71225  1
 C  C2  1  0.98066  0.25000  0.28775  1
 Mn  Mn1  1  0.30678  0.75000  0.79258  1
 Mn  Mn2  1  0.69322  0.25000  0.20742  1
 O  O1  1  0.12882  0.25000  0.33302  1
 O  O2  1  0.07991  0.75000  0.95255  1
 O  O3  1  0.15999  0.75000  0.52937  1
 O  O4  1  0.92009  0.25000  0.04745  1
 O  O5  1  0.30349  0.43845  0.80953  1
 O  O6  1  0.30349  0.06155  0.80953  1
 O  O7  1  0.47670  0.25000  0.44839  1
 O  O8  1  0.56744  0.25000  0.88700  1
 O  O9  1  0.43256  0.75000  0.11300  1
 O  O10  1  0.69651  0.56155  0.19047  1
 O  O11  1  0.69651  0.93845  0.19047  1
 O  O12  1  0.84001  0.25000  0.47063  1
 O  O13  1  0.52330  0.75000  0.55161  1
 O  O14  1  0.87118  0.75000  0.66698  1
 S  S1  1  0.58309  0.75000  0.26111  1
 S  S2  1  0.41691  0.25000  0.73889  1
