CIF file written using JARVIS-Tools package.
data_Zn2SeCl2O3
_symmetry_space_group_name_H-M  'P2_1/c'
_cell_length_a       7.653
_cell_length_b       7.63253
_cell_length_c       10.3431
_cell_angle_alpha    90
_cell_angle_beta     90
_cell_angle_gamma    98.7061

_symmetry_Int_Tables_number  14
_chemical_formula_structural  Zn2SeCl2O3
_chemical_formula_sum  Zn8Se4Cl8O2
_cell_volume  597.1999517362913
_cell_formula_units_Z  4
loop_
  _symmetry_equiv_pos_site_id
 _symmetry_equiv_pos_as_xyz
 1  'x, y, z'
loop_
 _atom_site_type_symbol
 _atom_site_label
 _atom_site_symmetry_multiplicity
 _atom_site_fract_x
 _atom_site_fract_y
 _atom_site_fract_z
 _atom_site_fract_occupancy
 Cl  Cl1  1  0.53593  0.76582  0.27859  1
 Cl  Cl2  1  0.96407  0.23418  0.77859  1
 Cl  Cl3  1  0.22856  0.40993  0.40466  1
 Cl  Cl4  1  0.03593  0.76582  0.22141  1
 Cl  Cl5  1  0.27144  0.59007  0.90466  1
 Cl  Cl6  1  0.46407  0.23418  0.72141  1
 Cl  Cl7  1  0.72856  0.40993  0.09534  1
 Cl  Cl8  1  0.77144  0.59007  0.59534  1
 O  O1  1  0.40011  0.80439  0.58941  1
 O  O2  1  0.87433  0.12275  0.31589  1
 O  O3  1  0.28221  0.98500  0.95316  1
 O  O4  1  0.21779  0.01500  0.45316  1
 O  O5  1  0.78221  0.98500  0.54684  1
 O  O6  1  0.12567  0.87725  0.68411  1
 O  O7  1  0.59989  0.19561  0.41059  1
 O  O8  1  0.62567  0.87725  0.81589  1
 O  O9  1  0.71779  0.01500  0.04684  1
 O  O10  1  0.90011  0.80439  0.91059  1
 O  O11  1  0.37433  0.12275  0.18411  1
 O  O12  1  0.09989  0.19561  0.08941  1
 Se  Se1  1  0.68729  0.80941  0.96763  1
 Se  Se2  1  0.18729  0.80941  0.53237  1
 Se  Se3  1  0.81271  0.19059  0.46763  1
 Se  Se4  1  0.31271  0.19059  0.03237  1
 Zn  Zn1  1  0.38634  0.23491  0.51209  1
 Zn  Zn2  1  0.37910  0.92334  0.77609  1
 Zn  Zn3  1  0.12090  0.07666  0.27609  1
 Zn  Zn4  1  0.11366  0.76509  0.01209  1
 Zn  Zn5  1  0.62090  0.07666  0.22391  1
 Zn  Zn6  1  0.61366  0.76509  0.48791  1
 Zn  Zn7  1  0.87910  0.92334  0.72391  1
 Zn  Zn8  1  0.88634  0.23491  0.98791  1
