CIF file written using JARVIS-Tools package.
data_InSb2S4Cl
_symmetry_space_group_name_H-M  'C2/m'
_cell_length_a       3.90171
_cell_length_b       10.1861
_cell_length_c       11.287
_cell_angle_alpha    64.7068
_cell_angle_beta     80.0487
_cell_angle_gamma    78.957

_symmetry_Int_Tables_number  12
_chemical_formula_structural  InSb2S4Cl
_chemical_formula_sum  In2Sb4S8Cl2
_cell_volume  395.9696252591746
_cell_formula_units_Z  2
loop_
  _symmetry_equiv_pos_site_id
 _symmetry_equiv_pos_as_xyz
 1  'x, y, z'
loop_
 _atom_site_type_symbol
 _atom_site_label
 _atom_site_symmetry_multiplicity
 _atom_site_fract_x
 _atom_site_fract_y
 _atom_site_fract_z
 _atom_site_fract_occupancy
 Cl  Cl1  1  0.60368  0.32158  0.47096  1
 Cl  Cl2  1  0.39632  0.67842  0.52904  1
 In  In1  1  0.83797  0.88758  0.43649  1
 In  In2  1  0.16203  0.11242  0.56351  1
 S  S1  1  0.28594  0.08107  0.34702  1
 S  S2  1  0.18096  0.50197  0.13613  1
 S  S3  1  0.96387  0.85492  0.21737  1
 S  S4  1  0.59827  0.82456  0.97881  1
 S  S5  1  0.03613  0.14508  0.78263  1
 S  S6  1  0.71406  0.91893  0.65298  1
 S  S7  1  0.81904  0.49803  0.86387  1
 S  S8  1  0.40173  0.17544  0.02119  1
 Sb  Sb1  1  0.54938  0.67674  0.22456  1
 Sb  Sb2  1  0.20307  0.69259  0.90106  1
 Sb  Sb3  1  0.45062  0.32326  0.77544  1
 Sb  Sb4  1  0.79693  0.30741  0.09894  1
