CIF file written using JARVIS-Tools package.
data_CIF3
_symmetry_space_group_name_H-M  'Cmce'
_cell_length_a       4.55961
_cell_length_b       4.55962
_cell_length_c       19.6527
_cell_angle_alpha    90
_cell_angle_beta     90
_cell_angle_gamma    102.165

_symmetry_Int_Tables_number  64
_chemical_formula_structural  CIF3
_chemical_formula_sum  C4I4F2
_cell_volume  399.40470878010996
_cell_formula_units_Z  4
loop_
  _symmetry_equiv_pos_site_id
 _symmetry_equiv_pos_as_xyz
 1  'x, y, z'
loop_
 _atom_site_type_symbol
 _atom_site_label
 _atom_site_symmetry_multiplicity
 _atom_site_fract_x
 _atom_site_fract_y
 _atom_site_fract_z
 _atom_site_fract_occupancy
 C  C1  1  0.86245  0.86245  0.40430  1
 C  C2  1  0.13755  0.13755  0.59570  1
 C  C3  1  0.36245  0.36245  0.09570  1
 C  C4  1  0.63755  0.63755  0.90430  1
 F  F1  1  0.33363  0.02567  0.55752  1
 F  F2  1  0.02567  0.33363  0.55752  1
 F  F3  1  0.40935  0.40935  0.88678  1
 F  F4  1  0.09065  0.09065  0.38678  1
 F  F5  1  0.52567  0.83363  0.94248  1
 F  F6  1  0.97433  0.66637  0.44248  1
 F  F7  1  0.90935  0.90935  0.61322  1
 F  F8  1  0.16637  0.47433  0.05752  1
 F  F9  1  0.83363  0.52567  0.94248  1
 F  F10  1  0.47433  0.16637  0.05752  1
 F  F11  1  0.59065  0.59065  0.11322  1
 F  F12  1  0.66637  0.97433  0.44248  1
 I  I1  1  0.85778  0.85778  0.81402  1
 I  I2  1  0.64222  0.64222  0.31402  1
 I  I3  1  0.35778  0.35778  0.68598  1
 I  I4  1  0.14222  0.14222  0.18598  1
