CIF file written using JARVIS-Tools package.
data_HfFeCl6
_symmetry_space_group_name_H-M  'P-31c'
_cell_length_a       6.21176
_cell_length_b       6.21176
_cell_length_c       11.6808
_cell_angle_alpha    90
_cell_angle_beta     90
_cell_angle_gamma    120

_symmetry_Int_Tables_number  163
_chemical_formula_structural  HfFeCl6
_chemical_formula_sum  Hf2Fe2Cl2
_cell_volume  390.3288672771988
_cell_formula_units_Z  2
loop_
  _symmetry_equiv_pos_site_id
 _symmetry_equiv_pos_as_xyz
 1  'x, y, z'
loop_
 _atom_site_type_symbol
 _atom_site_label
 _atom_site_symmetry_multiplicity
 _atom_site_fract_x
 _atom_site_fract_y
 _atom_site_fract_z
 _atom_site_fract_occupancy
 Cl  Cl1  1  0.66524  0.68186  0.87083  1
 Cl  Cl2  1  0.01662  0.33476  0.87083  1
 Cl  Cl3  1  0.31814  0.98338  0.87083  1
 Cl  Cl4  1  0.01662  0.68186  0.62917  1
 Cl  Cl5  1  0.33476  0.01662  0.37083  1
 Cl  Cl6  1  0.68186  0.66524  0.37083  1
 Cl  Cl7  1  0.98338  0.31814  0.37083  1
 Cl  Cl8  1  0.68186  0.01662  0.12917  1
 Cl  Cl9  1  0.98338  0.66524  0.12917  1
 Cl  Cl10  1  0.33476  0.31814  0.12917  1
 Cl  Cl11  1  0.66524  0.98338  0.62917  1
 Cl  Cl12  1  0.31814  0.33476  0.62917  1
 Fe  Fe1  1  0.00000  0.00000  0.75000  1
 Fe  Fe2  1  0.00000  0.00000  0.25000  1
 Hf  Hf1  1  0.33333  0.66667  0.75000  1
 Hf  Hf2  1  0.66667  0.33333  0.25000  1
