CIF file written using JARVIS-Tools package.
data_Ba2Bi6O11
_symmetry_space_group_name_H-M  'P-1'
_cell_length_a       4.4832
_cell_length_b       4.54925
_cell_length_c       31.2891
_cell_angle_alpha    124.601
_cell_angle_beta     125.352
_cell_angle_gamma    92.4332

_symmetry_Int_Tables_number  2
_chemical_formula_structural  Ba2Bi6O11
_chemical_formula_sum  Ba2Bi6O
_cell_volume  357.05436318429236
_cell_formula_units_Z  1
loop_
  _symmetry_equiv_pos_site_id
 _symmetry_equiv_pos_as_xyz
 1  'x, y, z'
loop_
 _atom_site_type_symbol
 _atom_site_label
 _atom_site_symmetry_multiplicity
 _atom_site_fract_x
 _atom_site_fract_y
 _atom_site_fract_z
 _atom_site_fract_occupancy
 Ba  Ba1  1  0.08715  0.12630  0.26779  1
 Ba  Ba2  1  -0.08715  0.87370  0.10721  1
 Bi  Bi1  1  0.01862  0.10122  0.88586  1
 Bi  Bi2  1  0.03408  0.04781  0.76046  1
 Bi  Bi3  1  0.07110  0.02664  0.37889  1
 Bi  Bi4  1  -0.03408  -0.04781  0.61454  1
 Bi  Bi5  1  -0.01862  -0.10122  0.48914  1
 Bi  Bi6  1  -0.07110  -0.02664  -0.00389  1
 O  O1  1  0.73207  0.42772  0.83668  1
 O  O2  1  0.44468  0.54469  0.11850  1
 O  O3  1  0.75118  0.39439  0.97958  1
 O  O4  1  0.13575  0.87529  0.81691  1
 O  O5  1  0.50369  0.03338  0.36083  1
 O  O6  1  0.26793  0.57228  0.53832  1
 O  O7  1  0.24882  -0.39439  0.39542  1
 O  O8  1  -0.13575  0.12471  0.55809  1
 O  O9  1  0.55532  0.45531  0.25650  1
 O  O10  1  0.00000  0.50000  0.68750  1
 O  O11  1  0.49631  0.96662  0.01417  1
