CIF file written using JARVIS-Tools package.
data_CuHO2
_symmetry_space_group_name_H-M  'C2/m'
_cell_length_a       2.78269
_cell_length_b       3.38731
_cell_length_c       4.40743
_cell_angle_alpha    96.774
_cell_angle_beta     90
_cell_angle_gamma    114.252

_symmetry_Int_Tables_number  12
_chemical_formula_structural  CuHO2
_chemical_formula_sum  CuHO2
_cell_volume  37.55908813937825
_cell_formula_units_Z  1
loop_
  _symmetry_equiv_pos_site_id
 _symmetry_equiv_pos_as_xyz
 1  'x, y, z'
loop_
 _atom_site_type_symbol
 _atom_site_label
 _atom_site_symmetry_multiplicity
 _atom_site_fract_x
 _atom_site_fract_y
 _atom_site_fract_z
 _atom_site_fract_occupancy
 Cu  Cu1  1  0.50000  -0.00000  -0.00000  1
 H  H1  1  -0.00000  0.00000  0.50000  1
 O  O1  1  0.91444  0.82888  0.23725  1
 O  O2  1  0.08556  0.17112  0.76275  1
