CIF file written using JARVIS-Tools package.
data_CuH12N10O8
_symmetry_space_group_name_H-M  'P-1'
_cell_length_a       6.32353
_cell_length_b       7.43857
_cell_length_c       7.4698
_cell_angle_alpha    97.1357
_cell_angle_beta     111.714
_cell_angle_gamma    114.481

_symmetry_Int_Tables_number  2
_chemical_formula_structural  CuH12N10O8
_chemical_formula_sum  CuH2N0O8
_cell_volume  280.62623985715317
_cell_formula_units_Z  1
loop_
  _symmetry_equiv_pos_site_id
 _symmetry_equiv_pos_as_xyz
 1  'x, y, z'
loop_
 _atom_site_type_symbol
 _atom_site_label
 _atom_site_symmetry_multiplicity
 _atom_site_fract_x
 _atom_site_fract_y
 _atom_site_fract_z
 _atom_site_fract_occupancy
 Cu  Cu1  1  -0.00000  0.50000  0.00000  1
 H  H1  1  0.05169  0.80629  0.26047  1
 H  H2  1  0.94831  0.19371  0.73953  1
 H  H3  1  0.69628  0.21862  0.09238  1
 H  H4  1  0.99214  0.69288  0.74344  1
 H  H5  1  0.14299  0.42058  0.72630  1
 H  H6  1  0.86481  0.12219  0.03338  1
 H  H7  1  0.00786  0.30712  0.25656  1
 H  H8  1  0.85701  0.57942  0.27370  1
 H  H9  1  0.25583  0.34001  0.92102  1
 H  H10  1  0.13519  0.87781  0.96662  1
 H  H11  1  0.74417  0.65999  0.07898  1
 H  H12  1  0.30372  0.78138  0.90762  1
 N  N1  1  0.87856  0.25719  0.10425  1
 N  N2  1  0.32859  0.12367  0.40045  1
 N  N3  1  0.09551  0.34629  0.82443  1
 N  N4  1  0.40602  0.18746  0.60711  1
 N  N5  1  0.90449  0.65371  0.17557  1
 N  N6  1  0.51013  0.74819  0.66367  1
 N  N7  1  0.12144  0.74281  0.89575  1
 N  N8  1  0.48987  0.25181  0.33633  1
 N  N9  1  0.59398  0.81254  0.39289  1
 N  N10  1  0.67141  0.87633  0.59955  1
 O  O1  1  0.69544  0.95844  0.33181  1
 O  O2  1  0.61121  0.79945  0.85627  1
 O  O3  1  0.38879  0.20055  0.14373  1
 O  O4  1  0.71996  0.39570  0.44967  1
 O  O5  1  0.45148  0.62527  0.28191  1
 O  O6  1  0.54852  0.37473  0.71809  1
 O  O7  1  0.28004  0.60430  0.55033  1
 O  O8  1  0.30456  0.04156  0.66819  1
