CIF file written using JARVIS-Tools package.
data_SmMg3
_symmetry_space_group_name_H-M  'P6_3/mmc'
_cell_length_a       6.73578
_cell_length_b       6.73577
_cell_length_c       5.19001
_cell_angle_alpha    90
_cell_angle_beta     90
_cell_angle_gamma    120

_symmetry_Int_Tables_number  194
_chemical_formula_structural  SmMg3
_chemical_formula_sum  Sm2Mg6
_cell_volume  203.92666484206163
_cell_formula_units_Z  2
loop_
  _symmetry_equiv_pos_site_id
 _symmetry_equiv_pos_as_xyz
 1  'x, y, z'
loop_
 _atom_site_type_symbol
 _atom_site_label
 _atom_site_symmetry_multiplicity
 _atom_site_fract_x
 _atom_site_fract_y
 _atom_site_fract_z
 _atom_site_fract_occupancy
 Mg  Mg1  1  0.16326  0.32653  0.25000  1
 Mg  Mg2  1  0.16326  0.83674  0.25000  1
 Mg  Mg3  1  0.67347  0.83674  0.25000  1
 Mg  Mg4  1  0.32653  0.16326  0.75000  1
 Mg  Mg5  1  0.83674  0.16326  0.75000  1
 Mg  Mg6  1  0.83674  0.67347  0.75000  1
 Sm  Sm1  1  0.66667  0.33333  0.25000  1
 Sm  Sm2  1  0.33333  0.66667  0.75000  1
