CIF file written using JARVIS-Tools package.
data_VRe2O9
_symmetry_space_group_name_H-M  'Cmc2_1'
_cell_length_a       5.72442
_cell_length_b       7.86206
_cell_length_c       8.84712
_cell_angle_alpha    90
_cell_angle_beta     90
_cell_angle_gamma    111.349

_symmetry_Int_Tables_number  36
_chemical_formula_structural  VRe2O9
_chemical_formula_sum  V2Re4O8
_cell_volume  370.84751285128834
_cell_formula_units_Z  2
loop_
  _symmetry_equiv_pos_site_id
 _symmetry_equiv_pos_as_xyz
 1  'x, y, z'
loop_
 _atom_site_type_symbol
 _atom_site_label
 _atom_site_symmetry_multiplicity
 _atom_site_fract_x
 _atom_site_fract_y
 _atom_site_fract_z
 _atom_site_fract_occupancy
 O  O1  1  0.29377  0.09119  0.32120  1
 O  O2  1  0.93710  0.87420  0.55978  1
 O  O3  1  0.41610  0.83220  0.13947  1
 O  O4  1  0.58390  0.16780  0.63948  1
 O  O5  1  0.39690  0.79379  0.45831  1
 O  O6  1  0.60310  0.20621  0.95832  1
 O  O7  1  0.03100  0.57848  0.67457  1
 O  O8  1  0.96900  0.42152  0.17457  1
 O  O9  1  0.54748  0.57848  0.67457  1
 O  O10  1  0.45252  0.42152  0.17457  1
 O  O11  1  0.06290  0.12580  0.05978  1
 O  O12  1  0.80850  0.61699  0.94287  1
 O  O13  1  0.86756  0.73512  0.24663  1
 O  O14  1  0.20258  0.90881  0.82120  1
 O  O15  1  0.79742  0.09119  0.32120  1
 O  O16  1  0.70623  0.90881  0.82120  1
 O  O17  1  0.13244  0.26488  0.74663  1
 O  O18  1  0.19150  0.38301  0.44287  1
 Re  Re1  1  0.77238  0.54477  0.13132  1
 Re  Re2  1  0.52535  0.05070  0.80963  1
 Re  Re3  1  0.47465  0.94930  0.30963  1
 Re  Re4  1  0.22762  0.45523  0.63131  1
 V  V1  1  0.11624  0.23248  0.21747  1
 V  V2  1  0.88376  0.76752  0.71747  1
