CIF file written using JARVIS-Tools package.
data_AuBrO2
_symmetry_space_group_name_H-M  'C2/c'
_cell_length_a       3.69621
_cell_length_b       4.45677
_cell_length_c       9.94506
_cell_angle_alpha    102.948
_cell_angle_beta     90.401
_cell_angle_gamma    88.2106

_symmetry_Int_Tables_number  15
_chemical_formula_structural  AuBrO2
_chemical_formula_sum  Au2Br2O4
_cell_volume  159.58310312786887
_cell_formula_units_Z  2
loop_
  _symmetry_equiv_pos_site_id
 _symmetry_equiv_pos_as_xyz
 1  'x, y, z'
loop_
 _atom_site_type_symbol
 _atom_site_label
 _atom_site_symmetry_multiplicity
 _atom_site_fract_x
 _atom_site_fract_y
 _atom_site_fract_z
 _atom_site_fract_occupancy
 Au  Au1  1  0.00000  0.50000  0.50000  1
 Au  Au2  1  0.50000  -0.00000  0.50000  1
 Br  Br1  1  0.25000  0.35676  0.71352  1
 Br  Br2  1  0.75000  0.64324  0.28648  1
 O  O1  1  0.25528  0.89453  0.06694  1
 O  O2  1  0.75528  0.82759  0.93306  1
 O  O3  1  0.74472  0.10547  0.93306  1
 O  O4  1  0.24472  0.17241  0.06694  1
