CIF file written using JARVIS-Tools package.
data_Na2ZrO3
_symmetry_space_group_name_H-M  'C2/c'
_cell_length_a       5.6452
_cell_length_b       5.65087
_cell_length_c       11.1079
_cell_angle_alpha    85.0327
_cell_angle_beta     80.0174
_cell_angle_gamma    60.0332

_symmetry_Int_Tables_number  15
_chemical_formula_structural  Na2ZrO3
_chemical_formula_sum  Na8Zr4O2
_cell_volume  302.32771443118605
_cell_formula_units_Z  4
loop_
  _symmetry_equiv_pos_site_id
 _symmetry_equiv_pos_as_xyz
 1  'x, y, z'
loop_
 _atom_site_type_symbol
 _atom_site_label
 _atom_site_symmetry_multiplicity
 _atom_site_fract_x
 _atom_site_fract_y
 _atom_site_fract_z
 _atom_site_fract_occupancy
 Na  Na1  1  0.91516  0.66969  0.25000  1
 Na  Na2  1  0.08484  0.33031  0.75000  1
 Na  Na3  1  0.00000  0.00000  0.00000  1
 Na  Na4  1  0.50000  0.00000  0.50000  1
 Na  Na5  1  0.84198  0.34234  0.49972  1
 Na  Na6  1  0.31568  0.34234  0.00028  1
 Na  Na7  1  0.15802  0.65766  0.50028  1
 Na  Na8  1  0.68432  0.65766  0.99972  1
 O  O1  1  0.95177  0.30098  0.14264  1
 O  O2  1  0.41897  0.96040  0.85556  1
 O  O3  1  0.12064  0.96040  0.64444  1
 O  O4  1  0.58103  0.03960  0.14444  1
 O  O5  1  0.87936  0.03960  0.35556  1
 O  O6  1  0.51018  0.66942  0.35586  1
 O  O7  1  0.32040  0.66942  0.14414  1
 O  O8  1  0.75275  0.69902  0.64264  1
 O  O9  1  0.67960  0.33058  0.85586  1
 O  O10  1  0.04823  0.69902  0.85736  1
 O  O11  1  0.24725  0.30098  0.35736  1
 O  O12  1  0.48982  0.33058  0.64414  1
 Zr  Zr1  1  0.58203  0.33593  0.25000  1
 Zr  Zr2  1  0.24969  0.00061  0.25000  1
 Zr  Zr3  1  0.75031  0.99939  0.75000  1
 Zr  Zr4  1  0.41797  0.66407  0.75000  1
