CIF file written using JARVIS-Tools package.
data_MgPSe3
_symmetry_space_group_name_H-M  'R-3'
_cell_length_a       7.69577
_cell_length_b       7.69576
_cell_length_c       7.69576
_cell_angle_alpha    49.4457
_cell_angle_beta     49.4457
_cell_angle_gamma    49.4458

_symmetry_Int_Tables_number  148
_chemical_formula_structural  MgPSe3
_chemical_formula_sum  Mg2P2Se6
_cell_volume  241.830384400454
_cell_formula_units_Z  2
loop_
  _symmetry_equiv_pos_site_id
 _symmetry_equiv_pos_as_xyz
 1  'x, y, z'
loop_
 _atom_site_type_symbol
 _atom_site_label
 _atom_site_symmetry_multiplicity
 _atom_site_fract_x
 _atom_site_fract_y
 _atom_site_fract_z
 _atom_site_fract_occupancy
 Mg  Mg1  1  0.16800  0.16800  0.16800  1
 Mg  Mg2  1  0.83200  0.83200  0.83200  1
 P  P1  1  0.44445  0.44445  0.44445  1
 P  P2  1  0.55555  0.55555  0.55555  1
 Se  Se1  1  0.41029  0.74884  0.08445  1
 Se  Se2  1  0.08445  0.41029  0.74884  1
 Se  Se3  1  0.74884  0.08445  0.41029  1
 Se  Se4  1  0.58971  0.25116  0.91555  1
 Se  Se5  1  0.91555  0.58971  0.25116  1
 Se  Se6  1  0.25116  0.91555  0.58971  1
