CIF file written using JARVIS-Tools package.
data_Sc2H5
_symmetry_space_group_name_H-M  'Pmmn'
_cell_length_a       3.35093
_cell_length_b       6.66345
_cell_length_c       6.05015
_cell_angle_alpha    90
_cell_angle_beta     90
_cell_angle_gamma    120.191

_symmetry_Int_Tables_number  59
_chemical_formula_structural  Sc2H5
_chemical_formula_sum  Sc4H0
_cell_volume  116.76763181716419
_cell_formula_units_Z  2
loop_
  _symmetry_equiv_pos_site_id
 _symmetry_equiv_pos_as_xyz
 1  'x, y, z'
loop_
 _atom_site_type_symbol
 _atom_site_label
 _atom_site_symmetry_multiplicity
 _atom_site_fract_x
 _atom_site_fract_y
 _atom_site_fract_z
 _atom_site_fract_occupancy
 H  H1  1  0.00661  0.50661  0.75000  1
 H  H2  1  0.35673  0.85673  0.91132  1
 H  H3  1  0.35673  0.85673  0.58868  1
 H  H4  1  0.64327  0.64327  0.08868  1
 H  H5  1  0.64327  0.64327  0.41132  1
 H  H6  1  0.30585  0.30585  0.90894  1
 H  H7  1  0.30585  0.30585  0.59106  1
 H  H8  1  0.99339  0.99339  0.25000  1
 H  H9  1  0.69415  0.19415  0.09106  1
 H  H10  1  0.69415  0.19415  0.40894  1
 Sc  Sc1  1  0.33762  0.83762  0.25000  1
 Sc  Sc2  1  0.32487  0.32487  0.25000  1
 Sc  Sc3  1  0.66238  0.66238  0.75000  1
 Sc  Sc4  1  0.67513  0.17513  0.75000  1
