CIF file written using JARVIS-Tools package.
data_H2CSO4
_symmetry_space_group_name_H-M  'C222_1'
_cell_length_a       4.63619
_cell_length_b       5.37914
_cell_length_c       7.74861
_cell_angle_alpha    90
_cell_angle_beta     90
_cell_angle_gamma    115.527

_symmetry_Int_Tables_number  20
_chemical_formula_structural  H2CSO4
_chemical_formula_sum  H4C2S2O8
_cell_volume  174.3762168628126
_cell_formula_units_Z  2
loop_
  _symmetry_equiv_pos_site_id
 _symmetry_equiv_pos_as_xyz
 1  'x, y, z'
loop_
 _atom_site_type_symbol
 _atom_site_label
 _atom_site_symmetry_multiplicity
 _atom_site_fract_x
 _atom_site_fract_y
 _atom_site_fract_z
 _atom_site_fract_occupancy
 C  C1  1  0.95576  0.00000  0.75000  1
 C  C2  1  0.04424  -0.00000  0.25000  1
 H  H1  1  0.74867  0.84695  0.68064  1
 H  H2  1  0.25133  0.15305  0.18064  1
 H  H3  1  0.90171  0.15305  0.81936  1
 H  H4  1  0.09829  0.84695  0.31936  1
 O  O1  1  0.91927  0.13587  0.36791  1
 O  O2  1  0.08073  0.86413  0.86791  1
 O  O3  1  0.78339  0.86413  0.13209  1
 O  O4  1  0.21661  0.13587  0.63209  1
 O  O5  1  0.47245  0.48536  0.41708  1
 O  O6  1  0.52755  0.51464  0.91708  1
 O  O7  1  0.98709  0.51464  0.08292  1
 O  O8  1  0.01291  0.48536  0.58292  1
 S  S1  1  0.17224  0.34447  0.50000  1
 S  S2  1  0.82776  0.65553  0.00000  1
