CIF file written using JARVIS-Tools package.
data_Li6Mn5CoO12
_symmetry_space_group_name_H-M  'P-1'
_cell_length_a       4.99102
_cell_length_b       4.99098
_cell_length_c       9.97495
_cell_angle_alpha    82.2316
_cell_angle_beta     84.2213
_cell_angle_gamma    65.6527

_symmetry_Int_Tables_number  2
_chemical_formula_structural  Li6Mn5CoO12
_chemical_formula_sum  Li6Mn5CoO2
_cell_volume  224.02217528576284
_cell_formula_units_Z  1
loop_
  _symmetry_equiv_pos_site_id
 _symmetry_equiv_pos_as_xyz
 1  'x, y, z'
loop_
 _atom_site_type_symbol
 _atom_site_label
 _atom_site_symmetry_multiplicity
 _atom_site_fract_x
 _atom_site_fract_y
 _atom_site_fract_z
 _atom_site_fract_occupancy
 Co  Co1  1  0.00000  0.00000  0.00000  1
 Li  Li1  1  0.96721  0.28604  0.23513  1
 Li  Li2  1  0.72864  0.35085  0.76211  1
 Li  Li3  1  0.36535  0.04491  0.76427  1
 Li  Li4  1  0.27136  0.64915  0.23789  1
 Li  Li5  1  0.03279  0.71396  0.76487  1
 Li  Li6  1  0.63465  0.95509  0.23573  1
 Mn  Mn1  1  0.33009  0.32989  -0.00007  1
 Mn  Mn2  1  0.16774  0.66490  0.50190  1
 Mn  Mn3  1  0.50000  -0.00000  0.50000  1
 Mn  Mn4  1  0.66991  0.67011  0.00007  1
 Mn  Mn5  1  0.83226  0.33510  0.49810  1
 O  O1  1  0.81328  0.05759  0.38604  1
 O  O2  1  0.47864  0.72449  0.38752  1
 O  O3  1  0.65351  0.31280  0.10108  1
 O  O4  1  0.34649  0.68720  0.89892  1
 O  O5  1  0.52136  0.27551  0.61248  1
 O  O6  1  0.05186  0.32245  0.88299  1
 O  O7  1  0.28359  0.01257  0.11696  1
 O  O8  1  0.14740  0.39185  0.38713  1
 O  O9  1  0.18672  0.94241  0.61396  1
 O  O10  1  0.85260  0.60815  0.61287  1
 O  O11  1  0.71641  0.98743  0.88304  1
 O  O12  1  0.94814  0.67755  0.11701  1
