CIF file written using JARVIS-Tools package.
data_AcMg5
_symmetry_space_group_name_H-M  'P6/mmm'
_cell_length_a       6.15782
_cell_length_b       6.15782
_cell_length_c       4.97093
_cell_angle_alpha    90
_cell_angle_beta     90
_cell_angle_gamma    120

_symmetry_Int_Tables_number  191
_chemical_formula_structural  AcMg5
_chemical_formula_sum  AcMg5
_cell_volume  163.23844032182438
_cell_formula_units_Z  1
loop_
  _symmetry_equiv_pos_site_id
 _symmetry_equiv_pos_as_xyz
 1  'x, y, z'
loop_
 _atom_site_type_symbol
 _atom_site_label
 _atom_site_symmetry_multiplicity
 _atom_site_fract_x
 _atom_site_fract_y
 _atom_site_fract_z
 _atom_site_fract_occupancy
 Ac  Ac1  1  0.00000  0.00000  0.50000  1
 Mg  Mg1  1  0.49982  0.49982  0.00000  1
 Mg  Mg2  1  0.66667  0.33333  0.50000  1
 Mg  Mg3  1  0.50018  0.00000  0.00000  1
 Mg  Mg4  1  0.33333  0.66667  0.50000  1
 Mg  Mg5  1  0.00000  0.50018  0.00000  1
