CIF file written using JARVIS-Tools package.
data_Sc5CCl8
_symmetry_space_group_name_H-M  'C2/m'
_cell_length_a       3.52923
_cell_length_b       9.05367
_cell_length_c       9.48364
_cell_angle_alpha    80.9604
_cell_angle_beta     79.2765
_cell_angle_gamma    78.7608

_symmetry_Int_Tables_number  12
_chemical_formula_structural  Sc5CCl8
_chemical_formula_sum  Sc5CCl8
_cell_volume  289.7186523689261
_cell_formula_units_Z  1
loop_
  _symmetry_equiv_pos_site_id
 _symmetry_equiv_pos_as_xyz
 1  'x, y, z'
loop_
 _atom_site_type_symbol
 _atom_site_label
 _atom_site_symmetry_multiplicity
 _atom_site_fract_x
 _atom_site_fract_y
 _atom_site_fract_z
 _atom_site_fract_occupancy
 C  C1  1  0.00000  0.50000  0.50000  1
 Cl  Cl1  1  0.03307  0.17298  0.76088  1
 Cl  Cl2  1  0.96693  0.82702  0.23912  1
 Cl  Cl3  1  0.32999  0.50382  0.83619  1
 Cl  Cl4  1  0.67001  0.49618  0.16381  1
 Cl  Cl5  1  0.70285  0.16310  0.43120  1
 Cl  Cl6  1  0.29715  0.83690  0.56880  1
 Cl  Cl7  1  0.36799  0.16472  0.09930  1
 Cl  Cl8  1  0.63201  0.83528  0.90070  1
 Sc  Sc1  1  0.83786  0.64835  0.67593  1
 Sc  Sc2  1  0.16214  0.35165  0.32407  1
 Sc  Sc3  1  0.48640  0.63960  0.38761  1
 Sc  Sc4  1  0.51360  0.36040  0.61239  1
 Sc  Sc5  1  0.00000  0.00000  0.00000  1
