CIF file written using JARVIS-Tools package.
data_CdBiS2Br
_symmetry_space_group_name_H-M  'C2/m'
_cell_length_a       4.05836
_cell_length_b       6.85083
_cell_length_c       9.5628
_cell_angle_alpha    91.4792
_cell_angle_beta     90
_cell_angle_gamma    107.229

_symmetry_Int_Tables_number  12
_chemical_formula_structural  CdBiS2Br
_chemical_formula_sum  Cd2Bi2S4Br2
_cell_volume  253.85236458370068
_cell_formula_units_Z  2
loop_
  _symmetry_equiv_pos_site_id
 _symmetry_equiv_pos_as_xyz
 1  'x, y, z'
loop_
 _atom_site_type_symbol
 _atom_site_label
 _atom_site_symmetry_multiplicity
 _atom_site_fract_x
 _atom_site_fract_y
 _atom_site_fract_z
 _atom_site_fract_occupancy
 Bi  Bi1  1  0.27903  0.55806  0.69861  1
 Bi  Bi2  1  0.72097  0.44194  0.30139  1
 Br  Br1  1  0.35934  0.71868  0.07121  1
 Br  Br2  1  0.64066  0.28132  0.92879  1
 Cd  Cd1  1  0.00000  0.00000  0.50000  1
 Cd  Cd2  1  0.00000  0.00000  0.00000  1
 S  S1  1  0.35563  0.71126  0.44477  1
 S  S2  1  0.91848  0.83696  0.74544  1
 S  S3  1  0.64437  0.28874  0.55523  1
 S  S4  1  0.08152  0.16304  0.25456  1
