CIF file written using JARVIS-Tools package.
data_LiFeSiO4
_symmetry_space_group_name_H-M  'Pnma'
_cell_length_a       4.8842
_cell_length_b       6.21723
_cell_length_c       9.11043
_cell_angle_alpha    90
_cell_angle_beta     90
_cell_angle_gamma    90

_symmetry_Int_Tables_number  62
_chemical_formula_structural  LiFeSiO4
_chemical_formula_sum  Li4Fe4Si4O6
_cell_volume  276.6491168327414
_cell_formula_units_Z  4
loop_
  _symmetry_equiv_pos_site_id
 _symmetry_equiv_pos_as_xyz
 1  'x, y, z'
loop_
 _atom_site_type_symbol
 _atom_site_label
 _atom_site_symmetry_multiplicity
 _atom_site_fract_x
 _atom_site_fract_y
 _atom_site_fract_z
 _atom_site_fract_occupancy
 Fe  Fe1  1  0.00000  0.00000  0.00000  1
 Fe  Fe2  1  0.00000  0.50000  0.00000  1
 Fe  Fe3  1  0.50000  0.50000  0.50000  1
 Fe  Fe4  1  0.50000  0.00000  0.50000  1
 Li  Li1  1  0.97656  0.25000  0.66588  1
 Li  Li2  1  0.52344  0.25000  0.16588  1
 Li  Li3  1  0.47656  0.75000  0.83412  1
 Li  Li4  1  0.02344  0.75000  0.33412  1
 O  O1  1  0.80075  0.25000  0.86916  1
 O  O2  1  0.82313  0.53267  0.61555  1
 O  O3  1  0.82313  0.96733  0.61555  1
 O  O4  1  0.10308  0.25000  0.14167  1
 O  O5  1  0.67687  0.96733  0.11555  1
 O  O6  1  0.19925  0.75000  0.13084  1
 O  O7  1  0.39692  0.25000  0.64167  1
 O  O8  1  0.67687  0.53267  0.11555  1
 O  O9  1  0.60308  0.75000  0.35833  1
 O  O10  1  0.17687  0.46733  0.38445  1
 O  O11  1  0.32313  0.46733  0.88445  1
 O  O12  1  0.32313  0.03267  0.88445  1
 O  O13  1  0.69925  0.25000  0.36916  1
 O  O14  1  0.17687  0.03267  0.38445  1
 O  O15  1  0.30075  0.75000  0.63084  1
 O  O16  1  0.89692  0.75000  0.85833  1
 Si  Si1  1  0.97275  0.75000  0.67803  1
 Si  Si2  1  0.52725  0.75000  0.17803  1
 Si  Si3  1  0.47275  0.25000  0.82197  1
 Si  Si4  1  0.02725  0.25000  0.32197  1
