CIF file written using JARVIS-Tools package.
data_RuC4O4F6
_symmetry_space_group_name_H-M  'P-1'
_cell_length_a       5.26478
_cell_length_b       8.78895
_cell_length_c       8.26452
_cell_angle_alpha    87.5448
_cell_angle_beta     79.8154
_cell_angle_gamma    85.9171

_symmetry_Int_Tables_number  2
_chemical_formula_structural  RuC4O4F6
_chemical_formula_sum  Ru2C8O8F2
_cell_volume  375.2560239927034
_cell_formula_units_Z  2
loop_
  _symmetry_equiv_pos_site_id
 _symmetry_equiv_pos_as_xyz
 1  'x, y, z'
loop_
 _atom_site_type_symbol
 _atom_site_label
 _atom_site_symmetry_multiplicity
 _atom_site_fract_x
 _atom_site_fract_y
 _atom_site_fract_z
 _atom_site_fract_occupancy
 C  C1  1  0.54149  0.07601  0.28415  1
 C  C2  1  0.97807  0.70262  0.09876  1
 C  C3  1  0.02193  0.29738  0.90124  1
 C  C4  1  0.79991  0.62439  0.24187  1
 C  C5  1  0.20009  0.37561  0.75813  1
 C  C6  1  0.53742  0.23341  0.36110  1
 C  C7  1  0.46258  0.76659  0.63890  1
 C  C8  1  0.45851  0.92399  0.71585  1
 F  F1  1  0.64562  0.08411  0.12197  1
 F  F2  1  0.31437  0.03172  0.64292  1
 F  F3  1  0.17070  0.60206  0.02714  1
 F  F4  1  0.35438  0.91589  0.87803  1
 F  F5  1  0.82930  0.39794  0.97286  1
 F  F6  1  0.90952  0.18437  0.84019  1
 F  F7  1  0.29966  0.02999  0.29873  1
 F  F8  1  0.70034  0.97001  0.70127  1
 F  F9  1  0.84692  0.76063  -0.01750  1
 F  F10  1  0.68563  0.96828  0.35708  1
 F  F11  1  0.09048  0.81563  0.15981  1
 F  F12  1  0.15308  0.23937  0.01750  1
 O  O1  1  0.35714  0.32823  0.33105  1
 O  O2  1  0.43897  0.37072  0.75887  1
 O  O3  1  0.91124  0.56287  0.35671  1
 O  O4  1  0.08876  0.43713  0.64329  1
 O  O5  1  0.70898  0.25603  0.44562  1
 O  O6  1  0.29102  0.74397  0.55438  1
 O  O7  1  0.56103  0.62928  0.24113  1
 O  O8  1  0.64286  0.67177  0.66895  1
 Ru  Ru1  1  0.67766  0.46391  0.55987  1
 Ru  Ru2  1  0.32234  0.53609  0.44013  1
