CIF file written using JARVIS-Tools package.
data_NaCuO2
_symmetry_space_group_name_H-M  'Cmcm'
_cell_length_a       3.57871
_cell_length_b       5.40997
_cell_length_c       5.73558
_cell_angle_alpha    90
_cell_angle_beta     71.8217
_cell_angle_gamma    90

_symmetry_Int_Tables_number  63
_chemical_formula_structural  NaCuO2
_chemical_formula_sum  Na2Cu2O4
_cell_volume  105.50286976498543
_cell_formula_units_Z  2
loop_
  _symmetry_equiv_pos_site_id
 _symmetry_equiv_pos_as_xyz
 1  'x, y, z'
loop_
 _atom_site_type_symbol
 _atom_site_label
 _atom_site_symmetry_multiplicity
 _atom_site_fract_x
 _atom_site_fract_y
 _atom_site_fract_z
 _atom_site_fract_occupancy
 Cu  Cu1  1  0.00355  0.25000  0.99291  1
 Cu  Cu2  1  0.99645  0.75000  0.00709  1
 Na  Na1  1  0.28825  0.25000  0.42349  1
 Na  Na2  1  0.71175  0.75000  0.57651  1
 O  O1  1  0.88542  0.49335  0.22916  1
 O  O2  1  0.11458  0.50665  0.77084  1
 O  O3  1  0.88542  0.00665  0.22916  1
 O  O4  1  0.11458  0.99335  0.77084  1
