CIF file written using JARVIS-Tools package.
data_AgAuCl4
_symmetry_space_group_name_H-M  'C2/c'
_cell_length_a       4.1343
_cell_length_b       6.52984
_cell_length_c       11.6776
_cell_angle_alpha    87.5335
_cell_angle_beta     79.8053
_cell_angle_gamma    71.547

_symmetry_Int_Tables_number  15
_chemical_formula_structural  AgAuCl4
_chemical_formula_sum  Ag2Au2Cl8
_cell_volume  294.2941332558302
_cell_formula_units_Z  2
loop_
  _symmetry_equiv_pos_site_id
 _symmetry_equiv_pos_as_xyz
 1  'x, y, z'
loop_
 _atom_site_type_symbol
 _atom_site_label
 _atom_site_symmetry_multiplicity
 _atom_site_fract_x
 _atom_site_fract_y
 _atom_site_fract_z
 _atom_site_fract_occupancy
 Ag  Ag1  1  0.48743  0.74997  0.25001  1
 Ag  Ag2  1  0.51257  0.25003  0.74999  1
 Au  Au1  1  0.00000  0.00000  0.00000  1
 Au  Au2  1  0.00000  0.50000  0.50000  1
 Cl  Cl1  1  0.85915  0.33304  0.90911  1
 Cl  Cl2  1  0.10128  0.16695  0.59087  1
 Cl  Cl3  1  0.18410  0.63128  0.65095  1
 Cl  Cl4  1  0.46629  0.86874  0.84906  1
 Cl  Cl5  1  0.81590  0.36872  0.34905  1
 Cl  Cl6  1  0.14085  0.66696  0.09089  1
 Cl  Cl7  1  0.89872  0.83305  0.40913  1
 Cl  Cl8  1  0.53371  0.13126  0.15094  1
