CIF file written using JARVIS-Tools package.
data_HAuO2
_symmetry_space_group_name_H-M  'Pmn2_1'
_cell_length_a       3.08583
_cell_length_b       4.55448
_cell_length_c       6.77804
_cell_angle_alpha    90
_cell_angle_beta     90
_cell_angle_gamma    90

_symmetry_Int_Tables_number  31
_chemical_formula_structural  HAuO2
_chemical_formula_sum  H2Au2O4
_cell_volume  95.26091577514813
_cell_formula_units_Z  2
loop_
  _symmetry_equiv_pos_site_id
 _symmetry_equiv_pos_as_xyz
 1  'x, y, z'
loop_
 _atom_site_type_symbol
 _atom_site_label
 _atom_site_symmetry_multiplicity
 _atom_site_fract_x
 _atom_site_fract_y
 _atom_site_fract_z
 _atom_site_fract_occupancy
 Au  Au1  1  0.50000  0.78905  0.75605  1
 Au  Au2  1  0.00000  0.28905  0.24395  1
 H  H1  1  0.00000  0.32280  0.74209  1
 H  H2  1  0.50000  0.82280  0.25791  1
 O  O1  1  0.50000  0.54535  0.16035  1
 O  O2  1  0.50000  0.02918  0.33464  1
 O  O3  1  0.00000  0.52918  0.66536  1
 O  O4  1  0.00000  0.04535  0.83965  1
