CIF file written using JARVIS-Tools package.
data_Hg2Mo2O7
_symmetry_space_group_name_H-M  'P2/c'
_cell_length_a       6.09254
_cell_length_b       3.96562
_cell_length_c       14.5252
_cell_angle_alpha    90
_cell_angle_beta     104.698
_cell_angle_gamma    90

_symmetry_Int_Tables_number  13
_chemical_formula_structural  Hg2Mo2O7
_chemical_formula_sum  Hg4Mo4O4
_cell_volume  339.4543705686356
_cell_formula_units_Z  2
loop_
  _symmetry_equiv_pos_site_id
 _symmetry_equiv_pos_as_xyz
 1  'x, y, z'
loop_
 _atom_site_type_symbol
 _atom_site_label
 _atom_site_symmetry_multiplicity
 _atom_site_fract_x
 _atom_site_fract_y
 _atom_site_fract_z
 _atom_site_fract_occupancy
 Hg  Hg1  1  0.35292  0.66140  0.93580  1
 Hg  Hg2  1  0.64708  0.66140  0.56420  1
 Hg  Hg3  1  0.64708  0.33860  0.06420  1
 Hg  Hg4  1  0.35292  0.33860  0.43580  1
 Mo  Mo1  1  0.18945  0.03422  0.68457  1
 Mo  Mo2  1  0.81055  0.03422  0.81543  1
 Mo  Mo3  1  0.81055  0.96578  0.31543  1
 Mo  Mo4  1  0.18945  0.96578  0.18457  1
 O  O1  1  0.50000  0.96336  0.75000  1
 O  O2  1  0.50000  0.03664  0.25000  1
 O  O3  1  0.20438  0.02460  0.06880  1
 O  O4  1  0.81004  0.47574  0.80360  1
 O  O5  1  0.81004  0.52426  0.30360  1
 O  O6  1  0.18996  0.47574  0.69640  1
 O  O7  1  0.86547  0.02778  0.16867  1
 O  O8  1  0.79562  0.97540  0.93120  1
 O  O9  1  0.13453  0.02778  0.33133  1
 O  O10  1  0.18996  0.52426  0.19640  1
 O  O11  1  0.86547  0.97222  0.66867  1
 O  O12  1  0.79562  0.02460  0.43120  1
 O  O13  1  0.20438  0.97540  0.56880  1
 O  O14  1  0.13453  0.97222  0.83133  1
