CIF file written using JARVIS-Tools package.
data_PaBi3
_symmetry_space_group_name_H-M  'P6_3/mmc'
_cell_length_a       6.69766
_cell_length_b       6.69766
_cell_length_c       6.09001
_cell_angle_alpha    90
_cell_angle_beta     90
_cell_angle_gamma    120

_symmetry_Int_Tables_number  194
_chemical_formula_structural  PaBi3
_chemical_formula_sum  Pa2Bi6
_cell_volume  236.58872185047878
_cell_formula_units_Z  2
loop_
  _symmetry_equiv_pos_site_id
 _symmetry_equiv_pos_as_xyz
 1  'x, y, z'
loop_
 _atom_site_type_symbol
 _atom_site_label
 _atom_site_symmetry_multiplicity
 _atom_site_fract_x
 _atom_site_fract_y
 _atom_site_fract_z
 _atom_site_fract_occupancy
 Bi  Bi1  1  0.17190  0.82810  0.75000  1
 Bi  Bi2  1  0.65619  0.82810  0.75000  1
 Bi  Bi3  1  0.17190  0.34381  0.75000  1
 Bi  Bi4  1  0.82810  0.17190  0.25000  1
 Bi  Bi5  1  0.34381  0.17190  0.25000  1
 Bi  Bi6  1  0.82810  0.65619  0.25000  1
 Pa  Pa1  1  0.33333  0.66667  0.25000  1
 Pa  Pa2  1  0.66667  0.33333  0.75000  1
