CIF file written using JARVIS-Tools package.
data_NpP3
_symmetry_space_group_name_H-M  'P6_3/mmc'
_cell_length_a       5.41626
_cell_length_b       5.41626
_cell_length_c       5.22289
_cell_angle_alpha    90
_cell_angle_beta     90
_cell_angle_gamma    120

_symmetry_Int_Tables_number  194
_chemical_formula_structural  NpP3
_chemical_formula_sum  Np2P6
_cell_volume  132.69065513550652
_cell_formula_units_Z  2
loop_
  _symmetry_equiv_pos_site_id
 _symmetry_equiv_pos_as_xyz
 1  'x, y, z'
loop_
 _atom_site_type_symbol
 _atom_site_label
 _atom_site_symmetry_multiplicity
 _atom_site_fract_x
 _atom_site_fract_y
 _atom_site_fract_z
 _atom_site_fract_occupancy
 Np  Np1  1  0.66667  0.33333  0.25000  1
 Np  Np2  1  0.33333  0.66667  0.75000  1
 P  P1  1  0.81688  0.18312  0.75000  1
 P  P2  1  0.18312  0.36623  0.25000  1
 P  P3  1  0.63377  0.81688  0.25000  1
 P  P4  1  0.18312  0.81688  0.25000  1
 P  P5  1  0.81688  0.63377  0.75000  1
 P  P6  1  0.36624  0.18312  0.75000  1
