CIF file written using JARVIS-Tools package.
data_AgPb4ClO4
_symmetry_space_group_name_H-M  'P4/n'
_cell_length_a       6.34538
_cell_length_b       8.28534
_cell_length_c       8.28534
_cell_angle_alpha    90
_cell_angle_beta     90
_cell_angle_gamma    90

_symmetry_Int_Tables_number  85
_chemical_formula_structural  AgPb4ClO4
_chemical_formula_sum  Ag2Pb8Cl2O8
_cell_volume  435.58992249753305
_cell_formula_units_Z  2
loop_
  _symmetry_equiv_pos_site_id
 _symmetry_equiv_pos_as_xyz
 1  'x, y, z'
loop_
 _atom_site_type_symbol
 _atom_site_label
 _atom_site_symmetry_multiplicity
 _atom_site_fract_x
 _atom_site_fract_y
 _atom_site_fract_z
 _atom_site_fract_occupancy
 Ag  Ag1  1  0.91431  0.75000  0.75000  1
 Ag  Ag2  1  0.08569  0.25000  0.25000  1
 Cl  Cl1  1  0.51114  0.75000  0.75000  1
 Cl  Cl2  1  0.48886  0.25000  0.25000  1
 O  O1  1  0.91971  0.50649  0.15923  1
 O  O2  1  0.08029  0.49351  0.84077  1
 O  O3  1  0.08029  0.65923  0.49351  1
 O  O4  1  0.08029  0.00649  0.65923  1
 O  O5  1  0.08029  0.84077  0.00649  1
 O  O6  1  0.91971  0.99351  0.34077  1
 O  O7  1  0.91971  0.15923  0.99351  1
 O  O8  1  0.91971  0.34077  0.50649  1
 Pb  Pb1  1  0.23429  0.89704  0.43778  1
 Pb  Pb2  1  0.23429  0.43778  0.60296  1
 Pb  Pb3  1  0.23429  0.06222  0.89704  1
 Pb  Pb4  1  0.76571  0.39704  0.93778  1
 Pb  Pb5  1  0.76571  0.56222  0.39704  1
 Pb  Pb6  1  0.76571  0.93778  0.10296  1
 Pb  Pb7  1  0.23429  0.60296  0.06222  1
 Pb  Pb8  1  0.76571  0.10296  0.56222  1
