CIF file written using JARVIS-Tools package.
data_CuO2
_symmetry_space_group_name_H-M  'C2/m'
_cell_length_a       2.95348
_cell_length_b       4.84128
_cell_length_c       5.12021
_cell_angle_alpha    90.3582
_cell_angle_beta     90.109
_cell_angle_gamma    53.0008

_symmetry_Int_Tables_number  12
_chemical_formula_structural  CuO2
_chemical_formula_sum  Cu2O4
_cell_volume  58.46899426198002
_cell_formula_units_Z  2
loop_
  _symmetry_equiv_pos_site_id
 _symmetry_equiv_pos_as_xyz
 1  'x, y, z'
loop_
 _atom_site_type_symbol
 _atom_site_label
 _atom_site_symmetry_multiplicity
 _atom_site_fract_x
 _atom_site_fract_y
 _atom_site_fract_z
 _atom_site_fract_occupancy
 Cu  Cu1  1  0.99756  0.00008  0.00420  1
 Cu  Cu2  1  0.49753  0.00011  0.50419  1
 O  O1  1  0.23818  0.75613  0.66969  1
 O  O2  1  0.73828  0.75607  0.16970  1
 O  O3  1  0.25686  0.24408  0.83871  1
 O  O4  1  0.75688  0.24411  0.33868  1
