CIF file written using JARVIS-Tools package.
data_DyBr3
_symmetry_space_group_name_H-M  'P6_3/mmc'
_cell_length_a       9.57789
_cell_length_b       9.57817
_cell_length_c       3.74162
_cell_angle_alpha    90.0001
_cell_angle_beta     90
_cell_angle_gamma    120.002

_symmetry_Int_Tables_number  194
_chemical_formula_structural  DyBr3
_chemical_formula_sum  Dy2Br6
_cell_volume  297.2582220812023
_cell_formula_units_Z  2
loop_
  _symmetry_equiv_pos_site_id
 _symmetry_equiv_pos_as_xyz
 1  'x, y, z'
loop_
 _atom_site_type_symbol
 _atom_site_label
 _atom_site_symmetry_multiplicity
 _atom_site_fract_x
 _atom_site_fract_y
 _atom_site_fract_z
 _atom_site_fract_occupancy
 Br  Br1  1  0.20640  0.41280  0.25000  1
 Br  Br2  1  0.58721  0.79360  0.25000  1
 Br  Br3  1  0.20640  0.79360  0.25000  1
 Br  Br4  1  0.79360  0.58720  0.75000  1
 Br  Br5  1  0.41279  0.20640  0.75000  1
 Br  Br6  1  0.79360  0.20640  0.75000  1
 Dy  Dy1  1  0.33334  0.66667  0.75001  1
 Dy  Dy2  1  0.66666  0.33333  0.24999  1
