CIF file written using JARVIS-Tools package.
data_LiGe2N3
_symmetry_space_group_name_H-M  'Cmc2_1'
_cell_length_a       5.10293
_cell_length_b       5.55104
_cell_length_c       5.54556
_cell_angle_alpha    120.033
_cell_angle_beta     90
_cell_angle_gamma    90

_symmetry_Int_Tables_number  36
_chemical_formula_structural  LiGe2N3
_chemical_formula_sum  Li2Ge4N6
_cell_volume  135.9962682566615
_cell_formula_units_Z  2
loop_
  _symmetry_equiv_pos_site_id
 _symmetry_equiv_pos_as_xyz
 1  'x, y, z'
loop_
 _atom_site_type_symbol
 _atom_site_label
 _atom_site_symmetry_multiplicity
 _atom_site_fract_x
 _atom_site_fract_y
 _atom_site_fract_z
 _atom_site_fract_occupancy
 Ge  Ge1  1  0.49191  0.66919  0.67427  1
 Ge  Ge2  1  0.49191  0.99492  0.32573  1
 Ge  Ge3  1  0.99191  0.33081  0.32573  1
 Ge  Ge4  1  0.99191  0.00508  0.67427  1
 Li  Li1  1  0.49553  0.34146  0.00000  1
 Li  Li2  1  0.99553  0.65854  -0.00000  1
 N  N1  1  0.12201  0.66496  0.63055  1
 N  N2  1  0.12201  0.03440  0.36945  1
 N  N3  1  0.62201  0.33504  0.36945  1
 N  N4  1  0.62201  0.96560  0.63055  1
 N  N5  1  0.09764  0.30368  0.00000  1
 N  N6  1  0.59764  0.69632  -0.00000  1
