CIF file written using JARVIS-Tools package.
data_Yb2Cr2C3
_symmetry_space_group_name_H-M  'C2/m'
_cell_length_a       3.56465
_cell_length_b       5.38164
_cell_length_c       5.49646
_cell_angle_alpha    105.028
_cell_angle_beta     89.9825
_cell_angle_gamma    109.343

_symmetry_Int_Tables_number  12
_chemical_formula_structural  Yb2Cr2C3
_chemical_formula_sum  Yb2Cr2C3
_cell_volume  95.66283788464534
_cell_formula_units_Z  1
loop_
  _symmetry_equiv_pos_site_id
 _symmetry_equiv_pos_as_xyz
 1  'x, y, z'
loop_
 _atom_site_type_symbol
 _atom_site_label
 _atom_site_symmetry_multiplicity
 _atom_site_fract_x
 _atom_site_fract_y
 _atom_site_fract_z
 _atom_site_fract_occupancy
 C  C1  1  -0.00000  -0.00000  0.50000  1
 C  C2  1  0.68716  0.37412  0.29326  1
 C  C3  1  0.31284  0.62588  0.70674  1
 Cr  Cr1  1  0.15799  0.31591  0.40139  1
 Cr  Cr2  1  0.84201  0.68409  0.59861  1
 Yb  Yb1  1  0.40046  0.80069  0.18581  1
 Yb  Yb2  1  0.59954  0.19931  0.81419  1
