CIF file written using JARVIS-Tools package.
data_Ta2O5
_symmetry_space_group_name_H-M  'Cmcm'
_cell_length_a       10.3596
_cell_length_b       5.38921
_cell_length_c       3.83784
_cell_angle_alpha    110.859
_cell_angle_beta     90
_cell_angle_gamma    90

_symmetry_Int_Tables_number  63
_chemical_formula_structural  Ta2O5
_chemical_formula_sum  Ta4O0
_cell_volume  200.22414832473132
_cell_formula_units_Z  2
loop_
  _symmetry_equiv_pos_site_id
 _symmetry_equiv_pos_as_xyz
 1  'x, y, z'
loop_
 _atom_site_type_symbol
 _atom_site_label
 _atom_site_symmetry_multiplicity
 _atom_site_fract_x
 _atom_site_fract_y
 _atom_site_fract_z
 _atom_site_fract_occupancy
 O  O1  1  0.00000  0.88558  0.94279  1
 O  O2  1  0.13832  0.40625  0.70313  1
 O  O3  1  0.20633  0.85797  0.42898  1
 O  O4  1  0.29367  0.14203  0.07102  1
 O  O5  1  0.36168  0.59375  0.79687  1
 O  O6  1  0.50000  0.11442  0.55721  1
 O  O7  1  0.63832  0.59375  0.79687  1
 O  O8  1  0.86168  0.40625  0.70313  1
 O  O9  1  0.70633  0.14203  0.07102  1
 O  O10  1  0.79367  0.85797  0.42898  1
 Ta  Ta1  1  0.17693  0.76495  0.88247  1
 Ta  Ta2  1  0.32307  0.23505  0.61753  1
 Ta  Ta3  1  0.67693  0.23505  0.61753  1
 Ta  Ta4  1  0.82307  0.76495  0.88247  1
