CIF file written using JARVIS-Tools package.
data_CdI2
_symmetry_space_group_name_H-M  'P3m1'
_cell_length_a       4.28552
_cell_length_b       4.28552
_cell_length_c       20.6247
_cell_angle_alpha    90
_cell_angle_beta     90
_cell_angle_gamma    120

_symmetry_Int_Tables_number  156
_chemical_formula_structural  CdI2
_chemical_formula_sum  Cd3I6
_cell_volume  328.0390736852049
_cell_formula_units_Z  3
loop_
  _symmetry_equiv_pos_site_id
 _symmetry_equiv_pos_as_xyz
 1  'x, y, z'
loop_
 _atom_site_type_symbol
 _atom_site_label
 _atom_site_symmetry_multiplicity
 _atom_site_fract_x
 _atom_site_fract_y
 _atom_site_fract_z
 _atom_site_fract_occupancy
 Cd  Cd1  1  0.66667  0.33333  0.08332  1
 Cd  Cd2  1  0.00000  0.00000  0.41669  1
 Cd  Cd3  1  0.00000  0.00000  0.74991  1
 I  I1  1  0.66667  0.33333  0.66587  1
 I  I2  1  0.33333  0.66667  0.83404  1
 I  I3  1  0.33333  0.66667  0.16744  1
 I  I4  1  0.66667  0.33333  0.33264  1
 I  I5  1  0.00000  0.00000  -0.00071  1
 I  I6  1  0.33333  0.66667  0.50079  1
