CIF file written using JARVIS-Tools package.
data_Zn2In2S5
_symmetry_space_group_name_H-M  'P6_3mc'
_cell_length_a       3.90648
_cell_length_b       3.90648
_cell_length_c       30.6939
_cell_angle_alpha    90
_cell_angle_beta     90
_cell_angle_gamma    120

_symmetry_Int_Tables_number  186
_chemical_formula_structural  Zn2In2S5
_chemical_formula_sum  Zn4In4S0
_cell_volume  405.65168140737495
_cell_formula_units_Z  2
loop_
  _symmetry_equiv_pos_site_id
 _symmetry_equiv_pos_as_xyz
 1  'x, y, z'
loop_
 _atom_site_type_symbol
 _atom_site_label
 _atom_site_symmetry_multiplicity
 _atom_site_fract_x
 _atom_site_fract_y
 _atom_site_fract_z
 _atom_site_fract_occupancy
 In  In1  1  0.33333  0.66667  0.92030  1
 In  In2  1  0.00000  0.00000  0.18749  1
 In  In3  1  0.00000  0.00000  0.68749  1
 In  In4  1  0.66667  0.33333  0.42030  1
 S  S1  1  0.33333  0.66667  0.64486  1
 S  S2  1  0.66667  0.33333  0.73630  1
 S  S3  1  0.33333  0.66667  0.04291  1
 S  S4  1  0.33333  0.66667  0.45439  1
 S  S5  1  0.66667  0.33333  0.33814  1
 S  S6  1  0.66667  0.33333  0.14486  1
 S  S7  1  0.66667  0.33333  0.54291  1
 S  S8  1  0.33333  0.66667  0.83814  1
 S  S9  1  0.33333  0.66667  0.23630  1
 S  S10  1  0.66667  0.33333  0.95439  1
 Zn  Zn1  1  0.33333  0.66667  0.56390  1
 Zn  Zn2  1  0.66667  0.33333  0.06390  1
 Zn  Zn3  1  0.66667  0.33333  0.80971  1
 Zn  Zn4  1  0.33333  0.66667  0.30971  1
