CIF file written using JARVIS-Tools package.
data_PbCl4
_symmetry_space_group_name_H-M  'C2/c'
_cell_length_a       5.30234
_cell_length_b       6.57863
_cell_length_c       9.8361
_cell_angle_alpha    75.9442
_cell_angle_beta     74.3586
_cell_angle_gamma    66.2415

_symmetry_Int_Tables_number  15
_chemical_formula_structural  PbCl4
_chemical_formula_sum  Pb2Cl8
_cell_volume  298.8687464819332
_cell_formula_units_Z  2
loop_
  _symmetry_equiv_pos_site_id
 _symmetry_equiv_pos_as_xyz
 1  'x, y, z'
loop_
 _atom_site_type_symbol
 _atom_site_label
 _atom_site_symmetry_multiplicity
 _atom_site_fract_x
 _atom_site_fract_y
 _atom_site_fract_z
 _atom_site_fract_occupancy
 Cl  Cl1  1  0.12165  0.41986  0.31554  1
 Cl  Cl2  1  0.87835  0.58014  0.68446  1
 Cl  Cl3  1  0.61761  0.18504  0.54939  1
 Cl  Cl4  1  0.35199  0.31491  0.95063  1
 Cl  Cl5  1  0.85708  0.08015  0.18447  1
 Cl  Cl6  1  0.14292  0.91985  0.81553  1
 Cl  Cl7  1  0.38239  0.81496  0.45061  1
 Cl  Cl8  1  0.64801  0.68509  0.04937  1
 Pb  Pb1  1  0.25338  0.75002  0.24999  1
 Pb  Pb2  1  0.74662  0.24998  0.75001  1
