CIF file written using JARVIS-Tools package.
data_H7SN2O4
_symmetry_space_group_name_H-M  'P-1'
_cell_length_a       5.64542
_cell_length_b       5.62102
_cell_length_c       8.36816
_cell_angle_alpha    73.3658
_cell_angle_beta     74.1155
_cell_angle_gamma    66.5764

_symmetry_Int_Tables_number  2
_chemical_formula_structural  H7SN2O4
_chemical_formula_sum  H4S2N4O8
_cell_volume  229.57233257602394
_cell_formula_units_Z  2
loop_
  _symmetry_equiv_pos_site_id
 _symmetry_equiv_pos_as_xyz
 1  'x, y, z'
loop_
 _atom_site_type_symbol
 _atom_site_label
 _atom_site_symmetry_multiplicity
 _atom_site_fract_x
 _atom_site_fract_y
 _atom_site_fract_z
 _atom_site_fract_occupancy
 H  H1  1  0.79907  0.80225  0.96495  1
 H  H2  1  0.20093  0.19775  0.03505  1
 H  H3  1  0.99202  0.75077  0.11014  1
 H  H4  1  0.00798  0.24923  0.88986  1
 H  H5  1  0.65980  0.93103  0.14186  1
 H  H6  1  0.34020  0.06897  0.85814  1
 H  H7  1  0.92425  0.78027  0.49479  1
 H  H8  1  0.76751  0.59991  0.15373  1
 H  H9  1  0.81673  0.23928  0.42025  1
 H  H10  1  0.18327  0.76072  0.57975  1
 H  H11  1  0.81748  0.12986  0.63566  1
 H  H12  1  0.18252  0.87014  0.36434  1
 H  H13  1  0.07575  0.21973  0.50521  1
 H  H14  1  0.23249  0.40009  0.84627  1
 N  N1  1  0.93372  0.13270  0.51497  1
 N  N2  1  0.06628  0.86730  0.48503  1
 N  N3  1  0.80784  0.77372  0.09180  1
 N  N4  1  0.19216  0.22628  0.90820  1
 O  O1  1  0.70458  0.29662  0.24221  1
 O  O2  1  0.65609  0.81390  0.78502  1
 O  O3  1  0.68325  0.66095  0.53548  1
 O  O4  1  0.31675  0.33905  0.46452  1
 O  O5  1  0.70668  0.35263  0.80858  1
 O  O6  1  0.29332  0.64737  0.19142  1
 O  O7  1  0.29542  0.70338  0.75779  1
 O  O8  1  0.34391  0.18610  0.21498  1
 S  S1  1  0.41196  0.36895  0.27785  1
 S  S2  1  0.58804  0.63105  0.72215  1
