CIF file written using JARVIS-Tools package.
data_Mg2Mn3O8
_symmetry_space_group_name_H-M  'C2/m'
_cell_length_a       5.89012
_cell_length_b       5.89012
_cell_length_c       4.84051
_cell_angle_alpha    71.7968
_cell_angle_beta     108.203
_cell_angle_gamma    124.249

_symmetry_Int_Tables_number  12
_chemical_formula_structural  Mg2Mn3O8
_chemical_formula_sum  Mg2Mn3O8
_cell_volume  129.85652429437022
_cell_formula_units_Z  1
loop_
  _symmetry_equiv_pos_site_id
 _symmetry_equiv_pos_as_xyz
 1  'x, y, z'
loop_
 _atom_site_type_symbol
 _atom_site_label
 _atom_site_symmetry_multiplicity
 _atom_site_fract_x
 _atom_site_fract_y
 _atom_site_fract_z
 _atom_site_fract_occupancy
 Mg  Mg1  1  0.26748  0.73252  0.33693  1
 Mg  Mg2  1  0.73252  0.26748  0.66307  1
 Mn  Mn1  1  0.00000  0.00000  0.50000  1
 Mn  Mn2  1  0.28111  0.28111  0.00000  1
 Mn  Mn3  1  0.71889  0.71889  -0.00000  1
 O  O1  1  0.09963  0.90037  0.91392  1
 O  O2  1  0.12265  0.34714  0.59764  1
 O  O3  1  0.65286  0.87735  0.59764  1
 O  O4  1  0.38065  0.61935  0.06517  1
 O  O5  1  0.61935  0.38065  0.93483  1
 O  O6  1  0.34714  0.12265  0.40236  1
 O  O7  1  0.87735  0.65286  0.40236  1
 O  O8  1  0.90037  0.09963  0.08608  1
