CIF file written using JARVIS-Tools package.
data_LiCuO2
_symmetry_space_group_name_H-M  'Cmcm'
_cell_length_a       3.19563
_cell_length_b       5.27855
_cell_length_c       5.30456
_cell_angle_alpha    90
_cell_angle_beta     72.4692
_cell_angle_gamma    90

_symmetry_Int_Tables_number  63
_chemical_formula_structural  LiCuO2
_chemical_formula_sum  Li2Cu2O4
_cell_volume  85.32322704506204
_cell_formula_units_Z  2
loop_
  _symmetry_equiv_pos_site_id
 _symmetry_equiv_pos_as_xyz
 1  'x, y, z'
loop_
 _atom_site_type_symbol
 _atom_site_label
 _atom_site_symmetry_multiplicity
 _atom_site_fract_x
 _atom_site_fract_y
 _atom_site_fract_z
 _atom_site_fract_occupancy
 Cu  Cu1  1  0.00411  0.25000  0.99178  1
 Cu  Cu2  1  0.99589  0.75000  0.00822  1
 Li  Li1  1  0.28037  0.25000  0.43925  1
 Li  Li2  1  0.71963  0.75000  0.56075  1
 O  O1  1  0.12625  0.99183  0.74750  1
 O  O2  1  0.12625  0.50817  0.74750  1
 O  O3  1  0.87375  0.00817  0.25250  1
 O  O4  1  0.87375  0.49183  0.25250  1
