data_image0
_chemical_formula_structural       CuF2H4O2
_chemical_formula_sum              "Cu1 F2 H4 O2"
_cell_length_a       3.13852
_cell_length_b       4.76404
_cell_length_c       4.76404
_cell_angle_alpha    97.1795
_cell_angle_beta     100.488
_cell_angle_gamma    100.488

_space_group_name_H-M_alt    "P 1"
_space_group_IT_number       1

loop_
  _space_group_symop_operation_xyz
  'x, y, z'

loop_
  _atom_site_type_symbol
  _atom_site_label
  _atom_site_symmetry_multiplicity
  _atom_site_fract_x
  _atom_site_fract_y
  _atom_site_fract_z
  _atom_site_occupancy
  Cu  Cu1       1.0  0.00000  0.00000  0.00000  1.0000
  F   F1        1.0  0.53600  0.24200  0.24200  1.0000
  F   F2        1.0  0.46400  0.75800  0.75800  1.0000
  H   H1        1.0  0.79000  0.54700  0.23100  1.0000
  H   H2        1.0  0.21000  0.76900  0.45300  1.0000
  H   H3        1.0  0.79000  0.23100  0.54700  1.0000
  H   H4        1.0  0.21000  0.45300  0.76900  1.0000
  O   O1        1.0  0.00000  0.73800  0.26200  1.0000
  O   O2        1.0  0.00000  0.26200  0.73800  1.0000
