CIF file written using JARVIS-Tools package.
data_LiCuO2
_symmetry_space_group_name_H-M  'Pnnm'
_cell_length_a       2.76041
_cell_length_b       5.08463
_cell_length_c       5.2363
_cell_angle_alpha    90
_cell_angle_beta     90
_cell_angle_gamma    90

_symmetry_Int_Tables_number  58
_chemical_formula_structural  LiCuO2
_chemical_formula_sum  Li2Cu2O4
_cell_volume  73.49497528023284
_cell_formula_units_Z  2
loop_
  _symmetry_equiv_pos_site_id
 _symmetry_equiv_pos_as_xyz
 1  'x, y, z'
loop_
 _atom_site_type_symbol
 _atom_site_label
 _atom_site_symmetry_multiplicity
 _atom_site_fract_x
 _atom_site_fract_y
 _atom_site_fract_z
 _atom_site_fract_occupancy
 Cu  Cu1  1  0.50000  0.00000  0.00000  1
 Cu  Cu2  1  0.00000  0.50000  0.50000  1
 Li  Li1  1  0.00000  0.00000  0.50000  1
 Li  Li2  1  0.50000  0.50000  0.00000  1
 O  O1  1  0.00000  0.19969  0.85292  1
 O  O2  1  0.50000  0.69969  0.64708  1
 O  O3  1  0.00000  0.80031  0.14708  1
 O  O4  1  0.50000  0.30031  0.35292  1
