CIF file written using JARVIS-Tools package.
data_Ga2PdBr8
_symmetry_space_group_name_H-M  'C2/m'
_cell_length_a       7.13108
_cell_length_b       7.38971
_cell_length_c       7.38971
_cell_angle_alpha    62.8493
_cell_angle_beta     86.4698
_cell_angle_gamma    86.4698

_symmetry_Int_Tables_number  12
_chemical_formula_structural  Ga2PdBr8
_chemical_formula_sum  Ga2PdBr8
_cell_volume  345.599556957679
_cell_formula_units_Z  1
loop_
  _symmetry_equiv_pos_site_id
 _symmetry_equiv_pos_as_xyz
 1  'x, y, z'
loop_
 _atom_site_type_symbol
 _atom_site_label
 _atom_site_symmetry_multiplicity
 _atom_site_fract_x
 _atom_site_fract_y
 _atom_site_fract_z
 _atom_site_fract_occupancy
 Br  Br1  1  0.14565  0.10516  0.65543  1
 Br  Br2  1  0.14565  0.65543  0.10516  1
 Br  Br3  1  0.85435  0.89484  0.34457  1
 Br  Br4  1  0.30665  0.60567  0.60567  1
 Br  Br5  1  0.85435  0.34457  0.89484  1
 Br  Br6  1  0.36172  0.16090  0.16090  1
 Br  Br7  1  0.63828  0.83910  0.83910  1
 Br  Br8  1  0.69335  0.39433  0.39433  1
 Ga  Ga1  1  0.66573  0.21448  0.21448  1
 Ga  Ga2  1  0.33427  0.78552  0.78552  1
 Pd  Pd1  1  0.00000  0.00000  0.00000  1
