CIF file written using JARVIS-Tools package.
data_Li4MnCo3O8
_symmetry_space_group_name_H-M  'R-3m'
_cell_length_a       5.70904
_cell_length_b       5.70861
_cell_length_c       5.70913
_cell_angle_alpha    119.999
_cell_angle_beta     119.999
_cell_angle_gamma    90.0017

_symmetry_Int_Tables_number  166
_chemical_formula_structural  Li4MnCo3O8
_chemical_formula_sum  Li4MnCo3O8
_cell_volume  131.57049058011106
_cell_formula_units_Z  1
loop_
  _symmetry_equiv_pos_site_id
 _symmetry_equiv_pos_as_xyz
 1  'x, y, z'
loop_
 _atom_site_type_symbol
 _atom_site_label
 _atom_site_symmetry_multiplicity
 _atom_site_fract_x
 _atom_site_fract_y
 _atom_site_fract_z
 _atom_site_fract_occupancy
 Co  Co1  1  0.50000  0.00000  -0.00000  1
 Co  Co2  1  0.50000  0.00000  0.50000  1
 Co  Co3  1  -0.00000  -0.00000  0.50000  1
 Li  Li1  1  0.50000  0.50000  -0.00000  1
 Li  Li2  1  0.50000  0.50000  0.50000  1
 Li  Li3  1  0.00000  0.50000  -0.00000  1
 Li  Li4  1  -0.00000  0.50000  0.50000  1
 Mn  Mn1  1  0.00000  0.00000  0.00000  1
 O  O1  1  0.75977  0.77860  0.01884  1
 O  O2  1  0.75977  0.77858  0.51955  1
 O  O3  1  0.74086  0.22258  0.48171  1
 O  O4  1  0.25906  0.77860  0.01884  1
 O  O5  1  0.74094  0.22140  0.98116  1
 O  O6  1  0.25914  0.77742  0.51829  1
 O  O7  1  0.24023  0.22142  0.48045  1
 O  O8  1  0.24023  0.22140  0.98116  1
