CIF file written using JARVIS-Tools package.
data_KNaZnO2
_symmetry_space_group_name_H-M  'C2/c'
_cell_length_a       5.6015
_cell_length_b       5.83801
_cell_length_c       9.59956
_cell_angle_alpha    90
_cell_angle_beta     90
_cell_angle_gamma    103.306

_symmetry_Int_Tables_number  15
_chemical_formula_structural  KNaZnO2
_chemical_formula_sum  K4Na4Zn4O8
_cell_volume  305.4942592837516
_cell_formula_units_Z  4
loop_
  _symmetry_equiv_pos_site_id
 _symmetry_equiv_pos_as_xyz
 1  'x, y, z'
loop_
 _atom_site_type_symbol
 _atom_site_label
 _atom_site_symmetry_multiplicity
 _atom_site_fract_x
 _atom_site_fract_y
 _atom_site_fract_z
 _atom_site_fract_occupancy
 K  K1  1  0.50001  0.75006  0.37760  1
 K  K2  1  0.00001  0.75006  0.12240  1
 K  K3  1  -0.00001  0.24994  0.87760  1
 K  K4  1  0.49999  0.24994  0.62240  1
 Na  Na1  1  0.99996  0.74996  0.47735  1
 Na  Na2  1  0.49996  0.74996  0.02265  1
 Na  Na3  1  0.50004  0.25004  0.97735  1
 Na  Na4  1  0.00004  0.25004  0.52265  1
 O  O1  1  0.79566  0.43169  0.35875  1
 O  O2  1  0.70434  0.56831  0.85875  1
 O  O3  1  0.29590  0.93177  0.85872  1
 O  O4  1  0.20434  0.56831  0.64125  1
 O  O5  1  0.70410  0.06823  0.14128  1
 O  O6  1  0.20410  0.06823  0.35872  1
 O  O7  1  0.79590  0.93177  0.64128  1
 O  O8  1  0.29566  0.43169  0.14125  1
 Zn  Zn1  1  0.99987  0.24999  0.23960  1
 Zn  Zn2  1  0.50013  0.75001  0.73960  1
 Zn  Zn3  1  0.00013  0.75001  0.76040  1
 Zn  Zn4  1  0.49987  0.24999  0.26040  1
