CIF file written using JARVIS-Tools package.
data_Cu3Se2Cl2O6
_symmetry_space_group_name_H-M  'C2/m'
_cell_length_a       5.53678
_cell_length_b       5.53678
_cell_length_c       7.61631
_cell_angle_alpha    74.0625
_cell_angle_beta     74.0626
_cell_angle_gamma    68.2937

_symmetry_Int_Tables_number  12
_chemical_formula_structural  Cu3Se2Cl2O6
_chemical_formula_sum  Cu3Se2Cl2O6
_cell_volume  204.64102661115047
_cell_formula_units_Z  1
loop_
  _symmetry_equiv_pos_site_id
 _symmetry_equiv_pos_as_xyz
 1  'x, y, z'
loop_
 _atom_site_type_symbol
 _atom_site_label
 _atom_site_symmetry_multiplicity
 _atom_site_fract_x
 _atom_site_fract_y
 _atom_site_fract_z
 _atom_site_fract_occupancy
 Cl  Cl1  1  0.29453  0.29453  0.62394  1
 Cl  Cl2  1  0.70547  0.70547  0.37606  1
 Cu  Cu1  1  0.59394  0.59394  0.15631  1
 Cu  Cu2  1  0.00000  0.00000  0.00000  1
 Cu  Cu3  1  0.40606  0.40606  0.84369  1
 O  O1  1  0.72595  0.10730  0.85256  1
 O  O2  1  0.27405  0.89270  0.14744  1
 O  O3  1  0.35487  0.35487  0.13196  1
 O  O4  1  0.64513  0.64513  0.86804  1
 O  O5  1  0.89270  0.27405  0.14744  1
 O  O6  1  0.10730  0.72595  0.85256  1
 Se  Se1  1  0.16602  0.16602  0.26512  1
 Se  Se2  1  0.83398  0.83398  0.73488  1
