CIF file written using JARVIS-Tools package.
data_Li2MnSnP2O8
_symmetry_space_group_name_H-M  'P2_1/m'
_cell_length_a       4.82897
_cell_length_b       6.35485
_cell_length_c       11.07
_cell_angle_alpha    90
_cell_angle_beta     89.9314
_cell_angle_gamma    90

_symmetry_Int_Tables_number  11
_chemical_formula_structural  Li2MnSnP2O8
_chemical_formula_sum  Li4Mn2Sn2P4O6
_cell_volume  339.71009006894764
_cell_formula_units_Z  2
loop_
  _symmetry_equiv_pos_site_id
 _symmetry_equiv_pos_as_xyz
 1  'x, y, z'
loop_
 _atom_site_type_symbol
 _atom_site_label
 _atom_site_symmetry_multiplicity
 _atom_site_fract_x
 _atom_site_fract_y
 _atom_site_fract_z
 _atom_site_fract_occupancy
 Li  Li1  1  0.00000  0.00000  0.00000  1
 Li  Li2  1  0.00000  0.50000  0.00000  1
 Li  Li3  1  0.50000  0.00000  0.50000  1
 Li  Li4  1  0.50000  0.50000  0.50000  1
 Mn  Mn1  1  0.56499  0.25000  0.20816  1
 Mn  Mn2  1  0.43501  0.75000  0.79184  1
 O  O1  1  0.28691  0.25000  0.05472  1
 O  O2  1  0.73221  0.25000  0.92357  1
 O  O3  1  0.71143  0.94790  0.14062  1
 O  O4  1  0.71143  0.55210  0.14062  1
 O  O5  1  0.29142  0.44402  0.33258  1
 O  O6  1  0.29142  0.05598  0.33258  1
 O  O7  1  0.26779  0.75000  0.07643  1
 O  O8  1  0.75006  0.75000  0.47328  1
 O  O9  1  0.24994  0.25000  0.52672  1
 O  O10  1  0.16830  0.75000  0.62125  1
 O  O11  1  0.28857  0.44790  0.85938  1
 O  O12  1  0.70858  0.55598  0.66742  1
 O  O13  1  0.83170  0.25000  0.37875  1
 O  O14  1  0.28857  0.05210  0.85938  1
 O  O15  1  0.70858  0.94402  0.66742  1
 O  O16  1  0.71309  0.75000  0.94528  1
 P  P1  1  0.58629  0.75000  0.07444  1
 P  P2  1  0.14680  0.25000  0.39373  1
 P  P3  1  0.85320  0.75000  0.60627  1
 P  P4  1  0.41371  0.25000  0.92556  1
 Sn  Sn1  1  0.97302  0.25000  0.72025  1
 Sn  Sn2  1  0.02698  0.75000  0.27975  1
