CIF file written using JARVIS-Tools package.
data_MoO3
_symmetry_space_group_name_H-M  'Pc'
_cell_length_a       4.95159
_cell_length_b       5.37785
_cell_length_c       8.46411
_cell_angle_alpha    68.1481
_cell_angle_beta     90
_cell_angle_gamma    90

_symmetry_Int_Tables_number  7
_chemical_formula_structural  MoO3
_chemical_formula_sum  Mo4O2
_cell_volume  209.1958190469744
_cell_formula_units_Z  4
loop_
  _symmetry_equiv_pos_site_id
 _symmetry_equiv_pos_as_xyz
 1  'x, y, z'
loop_
 _atom_site_type_symbol
 _atom_site_label
 _atom_site_symmetry_multiplicity
 _atom_site_fract_x
 _atom_site_fract_y
 _atom_site_fract_z
 _atom_site_fract_occupancy
 Mo  Mo1  1  0.01909  0.95916  0.96854  1
 Mo  Mo2  1  0.48091  0.45916  0.96854  1
 Mo  Mo3  1  0.51929  0.70462  0.47086  1
 Mo  Mo4  1  0.98071  0.20462  0.47086  1
 O  O1  1  0.28400  0.02889  0.44769  1
 O  O2  1  0.24744  0.67987  0.06820  1
 O  O3  1  0.36623  0.58247  0.76425  1
 O  O4  1  0.13377  0.08247  0.76425  1
 O  O5  1  0.25256  0.17987  0.06820  1
 O  O6  1  0.21600  0.52889  0.44769  1
 O  O7  1  0.72487  0.40848  0.57393  1
 O  O8  1  0.66135  0.82219  0.27381  1
 O  O9  1  0.73186  0.76313  0.95353  1
 O  O10  1  0.76814  0.26313  0.95353  1
 O  O11  1  0.83865  0.32219  0.27381  1
 O  O12  1  0.77513  0.90848  0.57393  1
