CIF file written using JARVIS-Tools package.
data_CdPS3
_symmetry_space_group_name_H-M  'C2/m'
_cell_length_a       6.2653
_cell_length_b       6.26531
_cell_length_c       6.91057
_cell_angle_alpha    98.6274
_cell_angle_beta     98.6275
_cell_angle_gamma    119.993

_symmetry_Int_Tables_number  12
_chemical_formula_structural  CdPS3
_chemical_formula_sum  Cd2P2S6
_cell_volume  224.1215656745031
_cell_formula_units_Z  2
loop_
  _symmetry_equiv_pos_site_id
 _symmetry_equiv_pos_as_xyz
 1  'x, y, z'
loop_
 _atom_site_type_symbol
 _atom_site_label
 _atom_site_symmetry_multiplicity
 _atom_site_fract_x
 _atom_site_fract_y
 _atom_site_fract_z
 _atom_site_fract_occupancy
 Cd  Cd1  1  0.33182  0.66818  0.00000  1
 Cd  Cd2  1  0.66818  0.33182  -0.00000  1
 P  P1  1  0.05609  0.05609  0.17228  1
 P  P2  1  0.94391  0.94391  0.82772  1
 S  S1  1  0.39768  0.08455  0.26136  1
 S  S2  1  0.91545  0.60232  0.73864  1
 S  S3  1  0.23093  0.23093  0.74423  1
 S  S4  1  0.76907  0.76907  0.25577  1
 S  S5  1  0.60232  0.91545  0.73864  1
 S  S6  1  0.08455  0.39768  0.26136  1
