CIF file written using JARVIS-Tools package.
data_PbAuO2
_symmetry_space_group_name_H-M  'C2/m'
_cell_length_a       3.65708
_cell_length_b       6.56452
_cell_length_c       6.53134
_cell_angle_alpha    98.8653
_cell_angle_beta     90
_cell_angle_gamma    106.174

_symmetry_Int_Tables_number  12
_chemical_formula_structural  PbAuO2
_chemical_formula_sum  Pb2Au2O4
_cell_volume  148.64055085810597
_cell_formula_units_Z  2
loop_
  _symmetry_equiv_pos_site_id
 _symmetry_equiv_pos_as_xyz
 1  'x, y, z'
loop_
 _atom_site_type_symbol
 _atom_site_label
 _atom_site_symmetry_multiplicity
 _atom_site_fract_x
 _atom_site_fract_y
 _atom_site_fract_z
 _atom_site_fract_occupancy
 Au  Au1  1  0.25017  0.50035  0.22375  1
 Au  Au2  1  0.74983  0.49965  0.77625  1
 O  O1  1  0.58951  0.17903  0.72374  1
 O  O2  1  0.91063  0.82126  0.82173  1
 O  O3  1  0.41049  0.82097  0.27626  1
 O  O4  1  0.08937  0.17874  0.17827  1
 Pb  Pb1  1  0.50000  0.00000  0.00000  1
 Pb  Pb2  1  -0.00000  -0.00000  0.50000  1
