CIF file written using JARVIS-Tools package.
data_TlCuO2
_symmetry_space_group_name_H-M  'P2_1/m'
_cell_length_a       5.52019
_cell_length_b       5.4659
_cell_length_c       5.82836
_cell_angle_alpha    90
_cell_angle_beta     120.933
_cell_angle_gamma    90

_symmetry_Int_Tables_number  11
_chemical_formula_structural  TlCuO2
_chemical_formula_sum  Tl2Cu2O4
_cell_volume  150.84502420199848
_cell_formula_units_Z  2
loop_
  _symmetry_equiv_pos_site_id
 _symmetry_equiv_pos_as_xyz
 1  'x, y, z'
loop_
 _atom_site_type_symbol
 _atom_site_label
 _atom_site_symmetry_multiplicity
 _atom_site_fract_x
 _atom_site_fract_y
 _atom_site_fract_z
 _atom_site_fract_occupancy
 Cu  Cu1  1  0.01029  0.75000  0.50493  1
 Cu  Cu2  1  0.98971  0.25000  0.49507  1
 O  O1  1  -0.00001  0.50000  0.71381  1
 O  O2  1  0.00001  0.50000  0.28619  1
 O  O3  1  0.00001  0.00000  0.28619  1
 O  O4  1  -0.00001  -0.00000  0.71381  1
 Tl  Tl1  1  0.31832  0.25000  0.15533  1
 Tl  Tl2  1  0.68168  0.75000  0.84467  1
