CIF file written using JARVIS-Tools package.
data_Te2SO7
_symmetry_space_group_name_H-M  'Pmn2_1'
_cell_length_a       4.48231
_cell_length_b       6.97008
_cell_length_c       8.84244
_cell_angle_alpha    90
_cell_angle_beta     90
_cell_angle_gamma    90

_symmetry_Int_Tables_number  31
_chemical_formula_structural  Te2SO7
_chemical_formula_sum  Te4S2O4
_cell_volume  276.256011115175
_cell_formula_units_Z  2
loop_
  _symmetry_equiv_pos_site_id
 _symmetry_equiv_pos_as_xyz
 1  'x, y, z'
loop_
 _atom_site_type_symbol
 _atom_site_label
 _atom_site_symmetry_multiplicity
 _atom_site_fract_x
 _atom_site_fract_y
 _atom_site_fract_z
 _atom_site_fract_occupancy
 O  O1  1  0.03326  0.48858  0.63870  1
 O  O2  1  0.27795  0.08442  0.28313  1
 O  O3  1  0.27676  0.93923  0.00000  1
 O  O4  1  0.27795  0.08442  0.71687  1
 O  O5  1  0.84286  0.28785  0.00000  1
 O  O6  1  0.77795  0.91558  0.21687  1
 O  O7  1  0.53326  0.51142  0.86130  1
 O  O8  1  0.77795  0.91558  0.78313  1
 O  O9  1  0.03326  0.48858  0.36130  1
 O  O10  1  0.45542  0.36501  0.50000  1
 O  O11  1  0.77676  0.06077  0.50000  1
 O  O12  1  0.34286  0.71215  0.50000  1
 O  O13  1  0.95542  0.63499  0.00000  1
 O  O14  1  0.53326  0.51142  0.13870  1
 S  S1  1  0.20838  0.51942  0.50000  1
 S  S2  1  0.70838  0.48058  0.00000  1
 Te  Te1  1  0.68958  0.17906  0.69666  1
 Te  Te2  1  0.18958  0.82094  0.80334  1
 Te  Te3  1  0.68958  0.17906  0.30334  1
 Te  Te4  1  0.18958  0.82094  0.19666  1
