CIF file written using JARVIS-Tools package.
data_LuCl3
_symmetry_space_group_name_H-M  'P6_3/mmc'
_cell_length_a       8.96487
_cell_length_b       8.96486
_cell_length_c       3.49181
_cell_angle_alpha    90
_cell_angle_beta     90
_cell_angle_gamma    120

_symmetry_Int_Tables_number  194
_chemical_formula_structural  LuCl3
_chemical_formula_sum  Lu2Cl6
_cell_volume  243.0351609009183
_cell_formula_units_Z  2
loop_
  _symmetry_equiv_pos_site_id
 _symmetry_equiv_pos_as_xyz
 1  'x, y, z'
loop_
 _atom_site_type_symbol
 _atom_site_label
 _atom_site_symmetry_multiplicity
 _atom_site_fract_x
 _atom_site_fract_y
 _atom_site_fract_z
 _atom_site_fract_occupancy
 Cl  Cl1  1  0.79094  0.20906  0.75000  1
 Cl  Cl2  1  0.41813  0.20906  0.75000  1
 Cl  Cl3  1  0.79094  0.58187  0.75000  1
 Cl  Cl4  1  0.20906  0.79094  0.25000  1
 Cl  Cl5  1  0.58188  0.79094  0.25000  1
 Cl  Cl6  1  0.20906  0.41813  0.25000  1
 Lu  Lu1  1  0.66667  0.33333  0.25000  1
 Lu  Lu2  1  0.33333  0.66667  0.75000  1
