CIF file written using JARVIS-Tools package.
data_VS2
_symmetry_space_group_name_H-M  'P6_3/mmc'
_cell_length_a       3.19504
_cell_length_b       3.19503
_cell_length_c       12.7031
_cell_angle_alpha    90
_cell_angle_beta     90
_cell_angle_gamma    120.007

_symmetry_Int_Tables_number  194
_chemical_formula_structural  VS2
_chemical_formula_sum  V2S4
_cell_volume  112.29493320201253
_cell_formula_units_Z  2
loop_
  _symmetry_equiv_pos_site_id
 _symmetry_equiv_pos_as_xyz
 1  'x, y, z'
loop_
 _atom_site_type_symbol
 _atom_site_label
 _atom_site_symmetry_multiplicity
 _atom_site_fract_x
 _atom_site_fract_y
 _atom_site_fract_z
 _atom_site_fract_occupancy
 S  S1  1  0.33333  0.66667  0.88474  1
 S  S2  1  0.33333  0.66667  0.61526  1
 S  S3  1  0.66667  0.33333  0.11526  1
 S  S4  1  0.66667  0.33333  0.38474  1
 V  V1  1  0.00000  0.00000  0.00000  1
 V  V2  1  0.00000  0.00000  0.50000  1
