CIF file written using JARVIS-Tools package.
data_CdHg4C6S6Br4N6
_symmetry_space_group_name_H-M  'Fmm2'
_cell_length_a       6.28215
_cell_length_b       9.44504
_cell_length_c       12.1181
_cell_angle_alpha    85.0548
_cell_angle_beta     74.9771
_cell_angle_gamma    70.5756

_symmetry_Int_Tables_number  42
_chemical_formula_structural  CdHg4C6S6Br4N6
_chemical_formula_sum  CdHg4C6S6Br4N6
_cell_volume  654.925211853715
_cell_formula_units_Z  1
loop_
  _symmetry_equiv_pos_site_id
 _symmetry_equiv_pos_as_xyz
 1  'x, y, z'
loop_
 _atom_site_type_symbol
 _atom_site_label
 _atom_site_symmetry_multiplicity
 _atom_site_fract_x
 _atom_site_fract_y
 _atom_site_fract_z
 _atom_site_fract_occupancy
 Br  Br1  1  0.36881  0.69240  0.59945  1
 Br  Br2  1  0.66066  0.30760  0.40055  1
 Br  Br3  1  0.96826  0.69240  0.40055  1
 Br  Br4  1  0.06121  0.30760  0.59945  1
 C  C1  1  0.66985  0.26358  0.85476  1
 C  C2  1  0.25963  -0.00000  0.22859  1
 C  C3  1  0.52461  0.26358  0.14524  1
 C  C4  1  0.48822  0.00000  0.77141  1
 C  C5  1  0.93343  0.73642  0.85476  1
 C  C6  1  0.78818  0.73642  0.14524  1
 Cd  Cd1  1  0.03563  -0.00000  -0.00000  1
 Hg  Hg1  1  0.53846  0.31430  0.62134  1
 Hg  Hg2  1  0.15981  0.31430  0.37866  1
 Hg  Hg3  1  0.85276  0.68570  0.62134  1
 Hg  Hg4  1  0.47411  0.68570  0.37866  1
 N  N1  1  0.71513  0.17979  0.12092  1
 N  N2  1  0.83605  0.17979  0.87908  1
 N  N3  1  0.01584  0.82021  0.87908  1
 N  N4  1  0.23262  -0.00000  0.13632  1
 N  N5  1  0.89492  0.82021  0.12092  1
 N  N6  1  0.36894  -0.00000  0.86368  1
 S  S1  1  0.64341  0.61433  0.17535  1
 S  S2  1  0.43310  0.38567  0.82465  1
 S  S3  1  0.65876  0.00000  0.64285  1
 S  S4  1  0.25775  0.38567  0.17535  1
 S  S5  1  0.81876  0.61433  0.82465  1
 S  S6  1  0.30161  -0.00000  0.35715  1
