CIF file written using JARVIS-Tools package.
data_CdSbS2Cl
_symmetry_space_group_name_H-M  'Pnma'
_cell_length_a       3.95573
_cell_length_b       9.58759
_cell_length_c       12.5732
_cell_angle_alpha    90
_cell_angle_beta     90
_cell_angle_gamma    90

_symmetry_Int_Tables_number  62
_chemical_formula_structural  CdSbS2Cl
_chemical_formula_sum  Cd4Sb4S8Cl4
_cell_volume  476.8505370518769
_cell_formula_units_Z  4
loop_
  _symmetry_equiv_pos_site_id
 _symmetry_equiv_pos_as_xyz
 1  'x, y, z'
loop_
 _atom_site_type_symbol
 _atom_site_label
 _atom_site_symmetry_multiplicity
 _atom_site_fract_x
 _atom_site_fract_y
 _atom_site_fract_z
 _atom_site_fract_occupancy
 Cd  Cd1  1  0.75000  0.00019  0.26914  1
 Cd  Cd2  1  0.25000  0.49981  0.76914  1
 Cd  Cd3  1  0.25000  -0.00019  0.73086  1
 Cd  Cd4  1  0.75000  0.50019  0.23086  1
 Cl  Cl1  1  0.25000  0.07376  0.39607  1
 Cl  Cl2  1  0.75000  0.42624  0.89607  1
 Cl  Cl3  1  0.25000  0.57376  0.10393  1
 Cl  Cl4  1  0.75000  0.92624  0.60393  1
 S  S1  1  0.75000  0.74124  0.33300  1
 S  S2  1  0.25000  0.94688  0.11041  1
 S  S3  1  0.25000  0.75876  0.83300  1
 S  S4  1  0.75000  0.05312  0.88959  1
 S  S5  1  0.25000  0.44688  0.38959  1
 S  S6  1  0.75000  0.24124  0.16700  1
 S  S7  1  0.75000  0.55312  0.61041  1
 S  S8  1  0.25000  0.25876  0.66700  1
 Sb  Sb1  1  0.25000  0.18742  0.03007  1
 Sb  Sb2  1  0.75000  0.31258  0.53007  1
 Sb  Sb3  1  0.75000  0.81258  0.96993  1
 Sb  Sb4  1  0.25000  0.68742  0.46993  1
