CIF file written using JARVIS-Tools package.
data_CdC2N2
_symmetry_space_group_name_H-M  'P4_2nm'
_cell_length_a       4.39044
_cell_length_b       7.15451
_cell_length_c       7.15451
_cell_angle_alpha    90
_cell_angle_beta     90
_cell_angle_gamma    90

_symmetry_Int_Tables_number  102
_chemical_formula_structural  CdC2N2
_chemical_formula_sum  Cd2C4N4
_cell_volume  224.73336897195753
_cell_formula_units_Z  2
loop_
  _symmetry_equiv_pos_site_id
 _symmetry_equiv_pos_as_xyz
 1  'x, y, z'
loop_
 _atom_site_type_symbol
 _atom_site_label
 _atom_site_symmetry_multiplicity
 _atom_site_fract_x
 _atom_site_fract_y
 _atom_site_fract_z
 _atom_site_fract_occupancy
 C  C1  1  0.46020  0.04572  0.45428  1
 C  C2  1  0.46020  0.45428  0.04572  1
 C  C3  1  0.96020  0.95428  0.95428  1
 C  C4  1  0.96020  0.54572  0.54572  1
 Cd  Cd1  1  0.30914  0.25000  0.25000  1
 Cd  Cd2  1  0.80914  0.75000  0.75000  1
 N  N1  1  0.01023  0.06729  0.06729  1
 N  N2  1  0.01023  0.43271  0.43271  1
 N  N3  1  0.51023  0.56729  0.93271  1
 N  N4  1  0.51023  0.93271  0.56729  1
