CIF file written using JARVIS-Tools package.
data_BAs
_symmetry_space_group_name_H-M  'P6_3mc'
_cell_length_a       3.38844
_cell_length_b       3.38844
_cell_length_c       5.61395
_cell_angle_alpha    90
_cell_angle_beta     90
_cell_angle_gamma    120

_symmetry_Int_Tables_number  186
_chemical_formula_structural  BAs
_chemical_formula_sum  B2As2
_cell_volume  55.821117803597645
_cell_formula_units_Z  2
loop_
  _symmetry_equiv_pos_site_id
 _symmetry_equiv_pos_as_xyz
 1  'x, y, z'
loop_
 _atom_site_type_symbol
 _atom_site_label
 _atom_site_symmetry_multiplicity
 _atom_site_fract_x
 _atom_site_fract_y
 _atom_site_fract_z
 _atom_site_fract_occupancy
 As  As1  1  0.33333  0.66667  0.00048  1
 As  As2  1  0.66667  0.33333  0.50048  1
 B  B1  1  0.33333  0.66667  0.37452  1
 B  B2  1  0.66667  0.33333  0.87452  1
