CIF file written using JARVIS-Tools package.
data_Mn11ZnO16
_symmetry_space_group_name_H-M  'P-4m2'
_cell_length_a       5.85526
_cell_length_b       5.85526
_cell_length_c       8.41802
_cell_angle_alpha    90
_cell_angle_beta     90
_cell_angle_gamma    89.9945

_symmetry_Int_Tables_number  115
_chemical_formula_structural  Mn11ZnO16
_chemical_formula_sum  MnZnO6
_cell_volume  288.6040589909477
_cell_formula_units_Z  1
loop_
  _symmetry_equiv_pos_site_id
 _symmetry_equiv_pos_as_xyz
 1  'x, y, z'
loop_
 _atom_site_type_symbol
 _atom_site_label
 _atom_site_symmetry_multiplicity
 _atom_site_fract_x
 _atom_site_fract_y
 _atom_site_fract_z
 _atom_site_fract_occupancy
 Mn  Mn1  1  0.50000  -0.00001  -0.00646  1
 Mn  Mn2  1  0.00000  0.75000  0.12259  1
 Mn  Mn3  1  0.50000  0.50001  -0.00646  1
 Mn  Mn4  1  0.24676  0.25000  0.24646  1
 Mn  Mn5  1  0.00000  0.00324  0.50354  1
 Mn  Mn6  1  0.75324  0.25000  0.24646  1
 Mn  Mn7  1  0.50000  0.25000  0.62741  1
 Mn  Mn8  1  -0.00000  0.49676  0.50354  1
 Mn  Mn9  1  0.74999  0.75000  0.75646  1
 Mn  Mn10  1  -0.00000  0.25000  0.87500  1
 Mn  Mn11  1  0.25001  0.75000  0.75646  1
 O  O1  1  0.76008  0.25001  0.50213  1
 O  O2  1  0.73455  0.25000  -0.00942  1
 O  O3  1  -0.00000  0.98455  0.75942  1
 O  O4  1  0.26545  0.25000  -0.00942  1
 O  O5  1  0.50001  0.01996  0.23048  1
 O  O6  1  0.49999  0.48004  0.23048  1
 O  O7  1  0.00001  0.01008  0.24787  1
 O  O8  1  0.49999  0.99110  0.75678  1
 O  O9  1  0.00000  0.51545  0.75942  1
 O  O10  1  0.23004  0.74999  0.51952  1
 O  O11  1  0.50001  0.50890  0.75678  1
 O  O12  1  0.74110  0.74999  0.99322  1
 O  O13  1  -0.00001  0.48992  0.24787  1
 O  O14  1  0.23992  0.24999  0.50213  1
 O  O15  1  0.76996  0.75001  0.51952  1
 O  O16  1  0.25890  0.75001  0.99322  1
 Zn  Zn1  1  0.50000  0.75000  0.37500  1
