CIF file written using JARVIS-Tools package.
data_ZrNCl
_symmetry_space_group_name_H-M  'R-3m'
_cell_length_a       9.47993
_cell_length_b       9.47993
_cell_length_c       9.47993
_cell_angle_alpha    22.0465
_cell_angle_beta     22.0465
_cell_angle_gamma    22.0464

_symmetry_Int_Tables_number  166
_chemical_formula_structural  ZrNCl
_chemical_formula_sum  Zr2N2Cl2
_cell_volume  105.23516925771797
_cell_formula_units_Z  2
loop_
  _symmetry_equiv_pos_site_id
 _symmetry_equiv_pos_as_xyz
 1  'x, y, z'
loop_
 _atom_site_type_symbol
 _atom_site_label
 _atom_site_symmetry_multiplicity
 _atom_site_fract_x
 _atom_site_fract_y
 _atom_site_fract_z
 _atom_site_fract_occupancy
 Cl  Cl1  1  0.38733  0.38733  0.38733  1
 Cl  Cl2  1  0.61267  0.61267  0.61267  1
 N  N1  1  0.19778  0.19778  0.19778  1
 N  N2  1  0.80222  0.80222  0.80222  1
 Zr  Zr1  1  0.11909  0.11909  0.11909  1
 Zr  Zr2  1  0.88091  0.88091  0.88091  1
