CIF file written using JARVIS-Tools package.
data_WCl4O
_symmetry_space_group_name_H-M  'I4'
_cell_length_a       3.90139
_cell_length_b       6.29371
_cell_length_c       6.29372
_cell_angle_alpha    84.4874
_cell_angle_beta     71.9442
_cell_angle_gamma    71.9442

_symmetry_Int_Tables_number  79
_chemical_formula_structural  WCl4O
_chemical_formula_sum  WCl4O
_cell_volume  139.69200851249903
_cell_formula_units_Z  1
loop_
  _symmetry_equiv_pos_site_id
 _symmetry_equiv_pos_as_xyz
 1  'x, y, z'
loop_
 _atom_site_type_symbol
 _atom_site_label
 _atom_site_symmetry_multiplicity
 _atom_site_fract_x
 _atom_site_fract_y
 _atom_site_fract_z
 _atom_site_fract_occupancy
 Cl  Cl1  1  0.14575  0.19003  0.66648  1
 Cl  Cl2  1  0.00225  0.80997  0.33352  1
 Cl  Cl3  1  0.33578  0.66648  0.80997  1
 Cl  Cl4  1  0.81223  0.33352  0.19003  1
 O  O1  1  0.55532  -0.00000  1.00000  1
 W  W1  1  0.00927  -0.00000  0.00000  1
