CIF file written using JARVIS-Tools package.
data_SnC2O4
_symmetry_space_group_name_H-M  'C2/c'
_cell_length_a       5.46463
_cell_length_b       5.86029
_cell_length_c       7.24511
_cell_angle_alpha    75.025
_cell_angle_beta     67.84
_cell_angle_gamma    62.2195

_symmetry_Int_Tables_number  15
_chemical_formula_structural  SnC2O4
_chemical_formula_sum  Sn2C4O8
_cell_volume  189.1462006676494
_cell_formula_units_Z  2
loop_
  _symmetry_equiv_pos_site_id
 _symmetry_equiv_pos_as_xyz
 1  'x, y, z'
loop_
 _atom_site_type_symbol
 _atom_site_label
 _atom_site_symmetry_multiplicity
 _atom_site_fract_x
 _atom_site_fract_y
 _atom_site_fract_z
 _atom_site_fract_occupancy
 C  C1  1  0.89400  0.13687  0.47011  1
 C  C2  1  0.50099  0.36310  0.02995  1
 C  C3  1  0.10600  0.86313  0.52989  1
 C  C4  1  0.49901  0.63690  0.97005  1
 O  O1  1  0.12607  0.67350  0.46124  1
 O  O2  1  0.26080  0.82650  0.03866  1
 O  O3  1  0.87393  0.32650  0.53876  1
 O  O4  1  0.73920  0.17350  0.96134  1
 O  O5  1  0.75457  0.15598  0.35899  1
 O  O6  1  0.26956  0.34394  0.14111  1
 O  O7  1  0.24543  0.84402  0.64101  1
 O  O8  1  0.73044  0.65606  0.85889  1
 Sn  Sn1  1  0.86502  0.74996  0.25002  1
 Sn  Sn2  1  0.13498  0.25004  0.74998  1
