CIF file written using JARVIS-Tools package.
data_PrMo3
_symmetry_space_group_name_H-M  'P6_3/mmc'
_cell_length_a       6.80438
_cell_length_b       6.80438
_cell_length_c       4.38596
_cell_angle_alpha    90
_cell_angle_beta     90
_cell_angle_gamma    120

_symmetry_Int_Tables_number  194
_chemical_formula_structural  PrMo3
_chemical_formula_sum  Pr2Mo6
_cell_volume  175.86227516576446
_cell_formula_units_Z  2
loop_
  _symmetry_equiv_pos_site_id
 _symmetry_equiv_pos_as_xyz
 1  'x, y, z'
loop_
 _atom_site_type_symbol
 _atom_site_label
 _atom_site_symmetry_multiplicity
 _atom_site_fract_x
 _atom_site_fract_y
 _atom_site_fract_z
 _atom_site_fract_occupancy
 Mo  Mo1  1  0.73937  0.86968  0.25000  1
 Mo  Mo2  1  0.13032  0.86968  0.25000  1
 Mo  Mo3  1  0.13032  0.26063  0.25000  1
 Mo  Mo4  1  0.26063  0.13032  0.75000  1
 Mo  Mo5  1  0.86968  0.13032  0.75000  1
 Mo  Mo6  1  0.86968  0.73937  0.75000  1
 Pr  Pr1  1  0.33333  0.66667  0.75000  1
 Pr  Pr2  1  0.66667  0.33333  0.25000  1
