CIF file written using JARVIS-Tools package.
data_TiI
_symmetry_space_group_name_H-M  'P6_3mc'
_cell_length_a       3.55856
_cell_length_b       3.55856
_cell_length_c       9.28445
_cell_angle_alpha    90
_cell_angle_beta     90
_cell_angle_gamma    120

_symmetry_Int_Tables_number  186
_chemical_formula_structural  TiI
_chemical_formula_sum  Ti2I2
_cell_volume  101.8201423518257
_cell_formula_units_Z  2
loop_
  _symmetry_equiv_pos_site_id
 _symmetry_equiv_pos_as_xyz
 1  'x, y, z'
loop_
 _atom_site_type_symbol
 _atom_site_label
 _atom_site_symmetry_multiplicity
 _atom_site_fract_x
 _atom_site_fract_y
 _atom_site_fract_z
 _atom_site_fract_occupancy
 I  I1  1  0.33333  0.66667  0.03744  1
 I  I2  1  0.66667  0.33333  0.53744  1
 Ti  Ti1  1  0.33333  0.66667  0.33756  1
 Ti  Ti2  1  0.66667  0.33333  0.83756  1
