CIF file written using JARVIS-Tools package.
data_LiSi2Rh2
_symmetry_space_group_name_H-M  'P4/mbm'
_cell_length_a       7.04755
_cell_length_b       7.04755
_cell_length_c       2.77252
_cell_angle_alpha    90
_cell_angle_beta     90
_cell_angle_gamma    90

_symmetry_Int_Tables_number  127
_chemical_formula_structural  LiSi2Rh2
_chemical_formula_sum  Li2Si4Rh4
_cell_volume  137.70559824906462
_cell_formula_units_Z  2
loop_
  _symmetry_equiv_pos_site_id
 _symmetry_equiv_pos_as_xyz
 1  'x, y, z'
loop_
 _atom_site_type_symbol
 _atom_site_label
 _atom_site_symmetry_multiplicity
 _atom_site_fract_x
 _atom_site_fract_y
 _atom_site_fract_z
 _atom_site_fract_occupancy
 Li  Li1  1  0.00000  0.00000  0.00000  1
 Li  Li2  1  0.50000  0.50000  0.00000  1
 Rh  Rh1  1  0.14953  0.35047  0.50000  1
 Rh  Rh2  1  0.35047  0.85047  0.50000  1
 Rh  Rh3  1  0.64953  0.14953  0.50000  1
 Rh  Rh4  1  0.85047  0.64953  0.50000  1
 Si  Si1  1  0.14643  0.64643  0.00000  1
 Si  Si2  1  0.35357  0.14643  0.00000  1
 Si  Si3  1  0.64643  0.85357  0.00000  1
 Si  Si4  1  0.85357  0.35357  0.00000  1
