CIF file written using JARVIS-Tools package.
data_ZrInRh2
_symmetry_space_group_name_H-M  'I4/mmm'
_cell_length_a       4.73004
_cell_length_b       4.38922
_cell_length_c       4.73001
_cell_angle_alpha    62.3565
_cell_angle_beta     55.2872
_cell_angle_gamma    62.3558

_symmetry_Int_Tables_number  139
_chemical_formula_structural  ZrInRh2
_chemical_formula_sum  ZrInRh2
_cell_volume  68.7646596767161
_cell_formula_units_Z  1
loop_
  _symmetry_equiv_pos_site_id
 _symmetry_equiv_pos_as_xyz
 1  'x, y, z'
loop_
 _atom_site_type_symbol
 _atom_site_label
 _atom_site_symmetry_multiplicity
 _atom_site_fract_x
 _atom_site_fract_y
 _atom_site_fract_z
 _atom_site_fract_occupancy
 In  In1  1  0.24999  0.25001  0.25000  1
 Rh  Rh1  1  -0.00000  -0.00000  0.00000  1
 Rh  Rh2  1  0.50000  0.50000  0.49999  1
 Zr  Zr1  1  0.75001  0.75000  0.75001  1
