CIF file written using JARVIS-Tools package.
data_LiC12
_symmetry_space_group_name_H-M  'P6/mmm'
_cell_length_a       4.29447
_cell_length_b       4.29447
_cell_length_c       6.97316
_cell_angle_alpha    90
_cell_angle_beta     90
_cell_angle_gamma    120

_symmetry_Int_Tables_number  191
_chemical_formula_structural  LiC12
_chemical_formula_sum  LiC2
_cell_volume  111.37288343235967
_cell_formula_units_Z  1
loop_
  _symmetry_equiv_pos_site_id
 _symmetry_equiv_pos_as_xyz
 1  'x, y, z'
loop_
 _atom_site_type_symbol
 _atom_site_label
 _atom_site_symmetry_multiplicity
 _atom_site_fract_x
 _atom_site_fract_y
 _atom_site_fract_z
 _atom_site_fract_occupancy
 C  C1  1  0.33323  -0.00000  0.26649  1
 C  C2  1  0.66677  0.66677  0.26649  1
 C  C3  1  -0.00000  0.33323  0.26649  1
 C  C4  1  0.66677  0.00000  0.26649  1
 C  C5  1  0.33323  0.33323  0.26649  1
 C  C6  1  0.00000  0.66677  0.26649  1
 C  C7  1  0.66677  0.00000  0.73351  1
 C  C8  1  0.33323  0.33323  0.73351  1
 C  C9  1  0.00000  0.66677  0.73351  1
 C  C10  1  0.33323  -0.00000  0.73351  1
 C  C11  1  0.66677  0.66677  0.73351  1
 C  C12  1  -0.00000  0.33323  0.73351  1
 Li  Li1  1  0.00000  0.00000  0.00000  1
