CIF file written using JARVIS-Tools package.
data_YCuPbS3
_symmetry_space_group_name_H-M  'Pnma'
_cell_length_a       3.93066
_cell_length_b       10.2573
_cell_length_c       12.9877
_cell_angle_alpha    90
_cell_angle_beta     90
_cell_angle_gamma    90

_symmetry_Int_Tables_number  62
_chemical_formula_structural  YCuPbS3
_chemical_formula_sum  Y4Cu4Pb4S2
_cell_volume  523.6382116998088
_cell_formula_units_Z  4
loop_
  _symmetry_equiv_pos_site_id
 _symmetry_equiv_pos_as_xyz
 1  'x, y, z'
loop_
 _atom_site_type_symbol
 _atom_site_label
 _atom_site_symmetry_multiplicity
 _atom_site_fract_x
 _atom_site_fract_y
 _atom_site_fract_z
 _atom_site_fract_occupancy
 Cu  Cu1  1  0.75000  0.23569  0.21960  1
 Cu  Cu2  1  0.25000  0.76431  0.78040  1
 Cu  Cu3  1  0.75000  0.73569  0.28040  1
 Cu  Cu4  1  0.25000  0.26431  0.71960  1
 Pb  Pb1  1  0.25000  0.72192  0.49962  1
 Pb  Pb2  1  0.75000  0.77808  0.99962  1
 Pb  Pb3  1  0.25000  0.22192  0.00038  1
 Pb  Pb4  1  0.75000  0.27808  0.50038  1
 S  S1  1  0.75000  0.91188  0.39306  1
 S  S2  1  0.25000  0.95336  0.88255  1
 S  S3  1  0.75000  0.04664  0.11745  1
 S  S4  1  0.25000  0.45336  0.61745  1
 S  S5  1  0.75000  0.54664  0.38255  1
 S  S6  1  0.25000  0.73650  0.17349  1
 S  S7  1  0.75000  0.26350  0.82651  1
 S  S8  1  0.25000  0.58812  0.89306  1
 S  S9  1  0.75000  0.76350  0.67349  1
 S  S10  1  0.75000  0.41188  0.10694  1
 S  S11  1  0.25000  0.08812  0.60694  1
 S  S12  1  0.25000  0.23650  0.32651  1
 Y  Y1  1  0.25000  0.98251  0.25926  1
 Y  Y2  1  0.75000  0.01749  0.74074  1
 Y  Y3  1  0.25000  0.48251  0.24074  1
 Y  Y4  1  0.75000  0.51749  0.75926  1
