CIF file written using JARVIS-Tools package.
data_LiFeSiO4
_symmetry_space_group_name_H-M  'Pnma'
_cell_length_a       4.78824
_cell_length_b       5.86623
_cell_length_c       10.124
_cell_angle_alpha    90
_cell_angle_beta     90
_cell_angle_gamma    90

_symmetry_Int_Tables_number  62
_chemical_formula_structural  LiFeSiO4
_chemical_formula_sum  Li4Fe4Si4O6
_cell_volume  284.37195487635216
_cell_formula_units_Z  4
loop_
  _symmetry_equiv_pos_site_id
 _symmetry_equiv_pos_as_xyz
 1  'x, y, z'
loop_
 _atom_site_type_symbol
 _atom_site_label
 _atom_site_symmetry_multiplicity
 _atom_site_fract_x
 _atom_site_fract_y
 _atom_site_fract_z
 _atom_site_fract_occupancy
 Fe  Fe1  1  0.99023  0.25000  0.72623  1
 Fe  Fe2  1  0.50977  0.25000  0.22623  1
 Fe  Fe3  1  0.49023  0.75000  0.77377  1
 Fe  Fe4  1  0.00977  0.75000  0.27377  1
 Li  Li1  1  0.00000  0.00000  0.00000  1
 Li  Li2  1  0.00000  0.50000  0.00000  1
 Li  Li3  1  0.50000  0.50000  0.50000  1
 Li  Li4  1  0.50000  0.00000  0.50000  1
 O  O1  1  0.77929  0.25000  0.89991  1
 O  O2  1  0.78424  0.53347  0.67006  1
 O  O3  1  0.78424  0.96653  0.67006  1
 O  O4  1  0.31011  0.25000  0.05754  1
 O  O5  1  0.71576  0.96653  0.17006  1
 O  O6  1  0.22071  0.75000  0.10009  1
 O  O7  1  0.18989  0.25000  0.55754  1
 O  O8  1  0.71576  0.53347  0.17006  1
 O  O9  1  0.81011  0.75000  0.44246  1
 O  O10  1  0.21576  0.46653  0.32994  1
 O  O11  1  0.28424  0.46653  0.82994  1
 O  O12  1  0.28424  0.03347  0.82994  1
 O  O13  1  0.72071  0.25000  0.39991  1
 O  O14  1  0.21576  0.03347  0.32994  1
 O  O15  1  0.27929  0.75000  0.60009  1
 O  O16  1  0.68989  0.75000  0.94246  1
 Si  Si1  1  0.94063  0.75000  0.59290  1
 Si  Si2  1  0.55937  0.75000  0.09290  1
 Si  Si3  1  0.44063  0.25000  0.90710  1
 Si  Si4  1  0.05937  0.25000  0.40710  1
