CIF file written using JARVIS-Tools package.
data_LiMnPO4
_symmetry_space_group_name_H-M  'Pc'
_cell_length_a       8.40082
_cell_length_b       5.14356
_cell_length_c       8.71573
_cell_angle_alpha    90
_cell_angle_beta     108.199
_cell_angle_gamma    90

_symmetry_Int_Tables_number  7
_chemical_formula_structural  LiMnPO4
_chemical_formula_sum  Li4Mn4P4O6
_cell_volume  357.76836315599934
_cell_formula_units_Z  4
loop_
  _symmetry_equiv_pos_site_id
 _symmetry_equiv_pos_as_xyz
 1  'x, y, z'
loop_
 _atom_site_type_symbol
 _atom_site_label
 _atom_site_symmetry_multiplicity
 _atom_site_fract_x
 _atom_site_fract_y
 _atom_site_fract_z
 _atom_site_fract_occupancy
 Li  Li1  1  0.10971  0.83056  0.98727  1
 Li  Li2  1  0.25320  0.32089  0.49942  1
 Li  Li3  1  0.60971  0.16944  0.98727  1
 Li  Li4  1  0.75320  0.67911  0.49942  1
 Mn  Mn1  1  0.98827  0.66987  0.24777  1
 Mn  Mn2  1  0.33748  0.82478  0.73503  1
 Mn  Mn3  1  0.48827  0.33013  0.24777  1
 Mn  Mn4  1  0.83748  0.17522  0.73503  1
 O  O1  1  0.02416  0.30951  0.35113  1
 O  O2  1  0.31774  0.69257  0.51198  1
 O  O3  1  0.21550  0.76650  0.21484  1
 O  O4  1  0.07626  0.17854  0.89184  1
 O  O5  1  0.19552  0.61487  0.84419  1
 O  O6  1  0.89450  0.88447  0.40013  1
 O  O7  1  0.39450  0.11553  0.40013  1
 O  O8  1  0.26160  0.20694  0.71122  1
 O  O9  1  0.38668  0.25942  0.00949  1
 O  O10  1  0.71550  0.23350  0.21484  1
 O  O11  1  0.69552  0.38513  0.84419  1
 O  O12  1  0.76160  0.79306  0.71122  1
 O  O13  1  0.57626  0.82146  0.89184  1
 O  O14  1  0.81774  0.30743  0.51198  1
 O  O15  1  0.52416  0.69049  0.35113  1
 O  O16  1  0.88668  0.74058  0.00949  1
 P  P1  1  0.22864  0.31848  0.86494  1
 P  P2  1  0.36452  0.81998  0.36954  1
 P  P3  1  0.72864  0.68152  0.86494  1
 P  P4  1  0.86452  0.18002  0.36954  1
