CIF file written using JARVIS-Tools package.
data_K3Nb
_symmetry_space_group_name_H-M  'P6_3/mmc'
_cell_length_a       8.15886
_cell_length_b       8.15886
_cell_length_c       6.471
_cell_angle_alpha    90
_cell_angle_beta     90
_cell_angle_gamma    120

_symmetry_Int_Tables_number  194
_chemical_formula_structural  K3Nb
_chemical_formula_sum  K6Nb2
_cell_volume  373.04449350641215
_cell_formula_units_Z  2
loop_
  _symmetry_equiv_pos_site_id
 _symmetry_equiv_pos_as_xyz
 1  'x, y, z'
loop_
 _atom_site_type_symbol
 _atom_site_label
 _atom_site_symmetry_multiplicity
 _atom_site_fract_x
 _atom_site_fract_y
 _atom_site_fract_z
 _atom_site_fract_occupancy
 K  K1  1  0.64506  0.82253  0.75000  1
 K  K2  1  0.17747  0.35494  0.75000  1
 K  K3  1  0.17747  0.82253  0.75000  1
 K  K4  1  0.35494  0.17747  0.25000  1
 K  K5  1  0.82253  0.64506  0.25000  1
 K  K6  1  0.82253  0.17747  0.25000  1
 Nb  Nb1  1  0.33333  0.66667  0.25000  1
 Nb  Nb2  1  0.66667  0.33333  0.75000  1
