CIF file written using JARVIS-Tools package.
data_TmMnRh2
_symmetry_space_group_name_H-M  'Fm-3m'
_cell_length_a       4.53412
_cell_length_b       4.53416
_cell_length_c       4.53418
_cell_angle_alpha    60.0001
_cell_angle_beta     60.0006
_cell_angle_gamma    59.9998

_symmetry_Int_Tables_number  225
_chemical_formula_structural  TmMnRh2
_chemical_formula_sum  TmMnRh2
_cell_volume  65.91355009195465
_cell_formula_units_Z  1
loop_
  _symmetry_equiv_pos_site_id
 _symmetry_equiv_pos_as_xyz
 1  'x, y, z'
loop_
 _atom_site_type_symbol
 _atom_site_label
 _atom_site_symmetry_multiplicity
 _atom_site_fract_x
 _atom_site_fract_y
 _atom_site_fract_z
 _atom_site_fract_occupancy
 Mn  Mn1  1  0.25000  0.25000  0.25000  1
 Rh  Rh1  1  0.00000  1.00000  -0.00000  1
 Rh  Rh2  1  0.50000  0.50000  0.50000  1
 Tm  Tm1  1  0.75000  0.75000  0.75000  1
