CIF file written using JARVIS-Tools package.
data_XeF3
_symmetry_space_group_name_H-M  'P2_1/c'
_cell_length_a       6.26079
_cell_length_b       6.47885
_cell_length_c       7.34379
_cell_angle_alpha    90
_cell_angle_beta     90
_cell_angle_gamma    92.368

_symmetry_Int_Tables_number  14
_chemical_formula_structural  XeF3
_chemical_formula_sum  Xe4F2
_cell_volume  297.63034315320414
_cell_formula_units_Z  4
loop_
  _symmetry_equiv_pos_site_id
 _symmetry_equiv_pos_as_xyz
 1  'x, y, z'
loop_
 _atom_site_type_symbol
 _atom_site_label
 _atom_site_symmetry_multiplicity
 _atom_site_fract_x
 _atom_site_fract_y
 _atom_site_fract_z
 _atom_site_fract_occupancy
 F  F1  1  0.83014  0.81943  0.19106  1
 F  F2  1  0.16986  0.18057  0.80894  1
 F  F3  1  0.53353  0.20913  0.10284  1
 F  F4  1  0.69123  0.49137  0.40591  1
 F  F5  1  0.80877  0.50863  0.90591  1
 F  F6  1  0.19123  0.49137  0.09409  1
 F  F7  1  0.30877  0.50863  0.59409  1
 F  F8  1  0.03353  0.20913  0.39716  1
 F  F9  1  0.66986  0.18057  0.69106  1
 F  F10  1  0.46647  0.79087  0.89716  1
 F  F11  1  0.33014  0.81943  0.30894  1
 F  F12  1  0.96647  0.79087  0.60284  1
 Xe  Xe1  1  0.50000  0.00000  0.50000  1
 Xe  Xe2  1  0.00000  0.00000  0.00000  1
 Xe  Xe3  1  -0.00000  0.50000  0.50000  1
 Xe  Xe4  1  0.50000  0.50000  0.00000  1
