CIF file written using JARVIS-Tools package.
data_Hf3Pt
_symmetry_space_group_name_H-M  'P6_3/mmc'
_cell_length_a       5.95802
_cell_length_b       5.95802
_cell_length_c       5.12168
_cell_angle_alpha    90
_cell_angle_beta     90
_cell_angle_gamma    120

_symmetry_Int_Tables_number  194
_chemical_formula_structural  Hf3Pt
_chemical_formula_sum  Hf6Pt2
_cell_volume  157.4519330764044
_cell_formula_units_Z  2
loop_
  _symmetry_equiv_pos_site_id
 _symmetry_equiv_pos_as_xyz
 1  'x, y, z'
loop_
 _atom_site_type_symbol
 _atom_site_label
 _atom_site_symmetry_multiplicity
 _atom_site_fract_x
 _atom_site_fract_y
 _atom_site_fract_z
 _atom_site_fract_occupancy
 Hf  Hf1  1  0.17120  0.34240  0.25000  1
 Hf  Hf2  1  0.65760  0.82880  0.25000  1
 Hf  Hf3  1  0.17120  0.82880  0.25000  1
 Hf  Hf4  1  0.82880  0.65760  0.75000  1
 Hf  Hf5  1  0.34240  0.17120  0.75000  1
 Hf  Hf6  1  0.82880  0.17120  0.75000  1
 Pt  Pt1  1  0.33333  0.66667  0.75000  1
 Pt  Pt2  1  0.66667  0.33333  0.25000  1
