CIF file written using JARVIS-Tools package.
data_YP3O9
_symmetry_space_group_name_H-M  'Cc'
_cell_length_a       6.76339
_cell_length_b       7.88143
_cell_length_c       8.69692
_cell_angle_alpha    74.7512
_cell_angle_beta     67.1177
_cell_angle_gamma    64.5913

_symmetry_Int_Tables_number  9
_chemical_formula_structural  YP3O9
_chemical_formula_sum  Y2P6O8
_cell_volume  383.21012010398647
_cell_formula_units_Z  2
loop_
  _symmetry_equiv_pos_site_id
 _symmetry_equiv_pos_as_xyz
 1  'x, y, z'
loop_
 _atom_site_type_symbol
 _atom_site_label
 _atom_site_symmetry_multiplicity
 _atom_site_fract_x
 _atom_site_fract_y
 _atom_site_fract_z
 _atom_site_fract_occupancy
 O  O1  1  0.43455  0.79093  0.37382  1
 O  O2  1  0.04746  0.58685  0.95164  1
 O  O3  1  0.41404  0.08685  0.45164  1
 O  O4  1  0.04887  0.27156  0.12509  1
 O  O5  1  0.55447  0.77156  0.62509  1
 O  O6  1  0.16347  0.92554  0.10234  1
 O  O7  1  0.89954  0.63194  0.72207  1
 O  O8  1  0.72988  0.89134  0.90907  1
 O  O9  1  0.74645  0.13194  0.22207  1
 O  O10  1  0.64568  0.58803  0.02444  1
 O  O11  1  0.74185  0.08803  0.52444  1
 O  O12  1  0.40071  0.29093  0.87382  1
 O  O13  1  0.80864  0.42554  0.60234  1
 O  O14  1  0.28177  0.43446  0.14395  1
 O  O15  1  0.13982  0.93446  0.64395  1
 O  O16  1  0.94120  0.18465  0.91489  1
 O  O17  1  0.95926  0.68465  0.41489  1
 O  O18  1  0.46971  0.39134  0.40907  1
 P  P1  1  0.81475  0.61836  0.57967  1
 P  P2  1  -0.01278  0.11836  0.07967  1
 P  P3  1  0.37639  0.88949  0.52025  1
 P  P4  1  0.21387  0.38949  0.02025  1
 P  P5  1  0.59715  0.18247  0.40998  1
 P  P6  1  0.81040  0.68247  0.90998  1
 Y  Y1  1  0.32021  0.64967  0.24529  1
 Y  Y2  1  0.78484  0.14967  0.74529  1
