CIF file written using JARVIS-Tools package.
data_Sm2Ti3Bi2O12
_symmetry_space_group_name_H-M  'I4/mmm'
_cell_length_a       3.81785
_cell_length_b       3.81786
_cell_length_c       16.6482
_cell_angle_alpha    96.5825
_cell_angle_beta     96.5816
_cell_angle_gamma    89.9993

_symmetry_Int_Tables_number  139
_chemical_formula_structural  Sm2Ti3Bi2O12
_chemical_formula_sum  Sm2Ti3Bi2O2
_cell_volume  239.45520984551706
_cell_formula_units_Z  1
loop_
  _symmetry_equiv_pos_site_id
 _symmetry_equiv_pos_as_xyz
 1  'x, y, z'
loop_
 _atom_site_type_symbol
 _atom_site_label
 _atom_site_symmetry_multiplicity
 _atom_site_fract_x
 _atom_site_fract_y
 _atom_site_fract_z
 _atom_site_fract_occupancy
 Bi  Bi1  1  0.21060  0.21059  0.42110  1
 Bi  Bi2  1  0.78940  0.78941  0.57890  1
 O  O1  1  0.38675  0.88674  0.77339  1
 O  O2  1  0.68137  0.68137  0.36290  1
 O  O3  1  0.11326  0.61326  0.22661  1
 O  O4  1  0.44129  0.44128  0.88254  1
 O  O5  1  0.75000  0.25000  0.50000  1
 O  O6  1  0.25000  0.75000  0.50000  1
 O  O7  1  0.61326  0.11326  0.22661  1
 O  O8  1  0.88674  0.38674  0.77339  1
 O  O9  1  0.50000  0.00000  0.00000  1
 O  O10  1  0.31863  0.31863  0.63710  1
 O  O11  1  0.55871  0.55872  0.11746  1
 O  O12  1  0.00000  0.50000  0.00000  1
 Sm  Sm1  1  0.93459  0.93459  0.86908  1
 Sm  Sm2  1  0.06541  0.06541  0.13092  1
 Ti  Ti1  1  0.62673  0.62673  0.25357  1
 Ti  Ti2  1  0.50000  0.50000  -0.00000  1
 Ti  Ti3  1  0.37327  0.37327  0.74643  1
