CIF file written using JARVIS-Tools package.
data_AlH3O3
_symmetry_space_group_name_H-M  'P2_12_12_1'
_cell_length_a       5.08312
_cell_length_b       5.13527
_cell_length_c       7.26749
_cell_angle_alpha    90
_cell_angle_beta     90
_cell_angle_gamma    90

_symmetry_Int_Tables_number  19
_chemical_formula_structural  AlH3O3
_chemical_formula_sum  Al4H2O2
_cell_volume  189.70464663252923
_cell_formula_units_Z  4
loop_
  _symmetry_equiv_pos_site_id
 _symmetry_equiv_pos_as_xyz
 1  'x, y, z'
loop_
 _atom_site_type_symbol
 _atom_site_label
 _atom_site_symmetry_multiplicity
 _atom_site_fract_x
 _atom_site_fract_y
 _atom_site_fract_z
 _atom_site_fract_occupancy
 Al  Al1  1  0.24788  -0.00021  0.49956  1
 Al  Al2  1  0.25212  0.00021  0.99956  1
 Al  Al3  1  0.74788  0.50021  0.50044  1
 Al  Al4  1  0.75212  0.49979  0.00044  1
 H  H1  1  0.46534  0.79446  0.25290  1
 H  H2  1  0.03466  0.20554  0.75290  1
 H  H3  1  0.21512  0.46035  0.02089  1
 H  H4  1  0.28488  0.53965  0.52089  1
 H  H5  1  0.41874  0.66731  0.79718  1
 H  H6  1  0.08126  0.33269  0.29718  1
 H  H7  1  0.53466  0.29446  0.24710  1
 H  H8  1  0.58126  0.16731  0.70282  1
 H  H9  1  0.71512  0.03965  0.97911  1
 H  H10  1  0.91874  0.83269  0.20282  1
 H  H11  1  0.96534  0.70554  0.74710  1
 H  H12  1  0.78488  0.96035  0.47911  1
 O  O1  1  0.91452  0.82260  0.44109  1
 O  O2  1  0.07278  0.31906  0.43499  1
 O  O3  1  0.08548  0.32260  0.05891  1
 O  O4  1  0.36830  0.96153  0.25004  1
 O  O5  1  0.13170  0.03847  0.75004  1
 O  O6  1  0.58548  0.17740  0.94109  1
 O  O7  1  0.57278  0.18094  0.56501  1
 O  O8  1  0.63170  0.46153  0.24996  1
 O  O9  1  0.86830  0.53847  0.74996  1
 O  O10  1  0.41452  0.67740  0.55891  1
 O  O11  1  0.42722  0.68094  0.93499  1
 O  O12  1  0.92722  0.81906  0.06501  1
