CIF file written using JARVIS-Tools package.
data_NaDy3
_symmetry_space_group_name_H-M  'P6_3/mmc'
_cell_length_a       7.11635
_cell_length_b       7.11635
_cell_length_c       5.67534
_cell_angle_alpha    90
_cell_angle_beta     90
_cell_angle_gamma    120

_symmetry_Int_Tables_number  194
_chemical_formula_structural  NaDy3
_chemical_formula_sum  Na2Dy6
_cell_volume  248.9067899669904
_cell_formula_units_Z  2
loop_
  _symmetry_equiv_pos_site_id
 _symmetry_equiv_pos_as_xyz
 1  'x, y, z'
loop_
 _atom_site_type_symbol
 _atom_site_label
 _atom_site_symmetry_multiplicity
 _atom_site_fract_x
 _atom_site_fract_y
 _atom_site_fract_z
 _atom_site_fract_occupancy
 Dy  Dy1  1  0.16321  0.83679  0.25000  1
 Dy  Dy2  1  0.83679  0.67358  0.75000  1
 Dy  Dy3  1  0.32642  0.16321  0.75000  1
 Dy  Dy4  1  0.83679  0.16321  0.75000  1
 Dy  Dy5  1  0.16321  0.32642  0.25000  1
 Dy  Dy6  1  0.67358  0.83679  0.25000  1
 Na  Na1  1  0.33333  0.66667  0.75000  1
 Na  Na2  1  0.66667  0.33333  0.25000  1
