CIF file written using JARVIS-Tools package.
data_Li3Cr3FeO8
_symmetry_space_group_name_H-M  'R-3m'
_cell_length_a       5.78892
_cell_length_b       5.78874
_cell_length_c       5.82053
_cell_angle_alpha    89.9987
_cell_angle_beta     119.822
_cell_angle_gamma    120

_symmetry_Int_Tables_number  166
_chemical_formula_structural  Li3Cr3FeO8
_chemical_formula_sum  Li3Cr3FeO8
_cell_volume  138.29331507190184
_cell_formula_units_Z  1
loop_
  _symmetry_equiv_pos_site_id
 _symmetry_equiv_pos_as_xyz
 1  'x, y, z'
loop_
 _atom_site_type_symbol
 _atom_site_label
 _atom_site_symmetry_multiplicity
 _atom_site_fract_x
 _atom_site_fract_y
 _atom_site_fract_z
 _atom_site_fract_occupancy
 Cr  Cr1  1  0.50000  0.50000  0.00000  1
 Cr  Cr2  1  0.50000  -0.00000  -0.00000  1
 Cr  Cr3  1  -0.00000  0.50000  0.00000  1
 Fe  Fe1  1  0.00000  0.00000  0.00000  1
 Li  Li1  1  0.50000  -0.00000  0.50000  1
 Li  Li2  1  0.50000  0.50000  0.50000  1
 Li  Li3  1  0.00000  0.00000  0.50000  1
 O  O1  1  0.48366  0.74182  0.22551  1
 O  O2  1  0.98267  0.23348  0.21618  1
 O  O3  1  0.98267  0.74918  0.21618  1
 O  O4  1  0.51634  0.25818  0.77449  1
 O  O5  1  0.46697  0.23348  0.21618  1
 O  O6  1  0.01733  0.76652  0.78382  1
 O  O7  1  0.01733  0.25082  0.78382  1
 O  O8  1  0.53303  0.76652  0.78382  1
