CIF file written using JARVIS-Tools package.
data_ZnC2N2
_symmetry_space_group_name_H-M  'P4_2nm'
_cell_length_a       5.82148
_cell_length_b       5.97642
_cell_length_c       5.97642
_cell_angle_alpha    90
_cell_angle_beta     90
_cell_angle_gamma    90

_symmetry_Int_Tables_number  102
_chemical_formula_structural  ZnC2N2
_chemical_formula_sum  Zn2C4N4
_cell_volume  207.92949966870324
_cell_formula_units_Z  2
loop_
  _symmetry_equiv_pos_site_id
 _symmetry_equiv_pos_as_xyz
 1  'x, y, z'
loop_
 _atom_site_type_symbol
 _atom_site_label
 _atom_site_symmetry_multiplicity
 _atom_site_fract_x
 _atom_site_fract_y
 _atom_site_fract_z
 _atom_site_fract_occupancy
 C  C1  1  0.44259  0.05099  0.44901  1
 C  C2  1  0.44259  0.44901  0.05099  1
 C  C3  1  0.94259  0.94901  0.94901  1
 C  C4  1  0.94259  0.55099  0.55099  1
 N  N1  1  0.05267  0.06367  0.06367  1
 N  N2  1  0.05267  0.43633  0.43633  1
 N  N3  1  0.55267  0.56367  0.93633  1
 N  N4  1  0.55267  0.93633  0.56367  1
 Zn  Zn1  1  0.25949  0.25000  0.25000  1
 Zn  Zn2  1  0.75949  0.75000  0.75000  1
