CIF file written using JARVIS-Tools package.
data_MgI2O6
_symmetry_space_group_name_H-M  'P2_12_12_1'
_cell_length_a       5.70692
_cell_length_b       16.9836
_cell_length_c       5.3243
_cell_angle_alpha    90
_cell_angle_beta     90
_cell_angle_gamma    90

_symmetry_Int_Tables_number  19
_chemical_formula_structural  MgI2O6
_chemical_formula_sum  Mg4I8O24
_cell_volume  516.0533904417391
_cell_formula_units_Z  4
loop_
  _symmetry_equiv_pos_site_id
 _symmetry_equiv_pos_as_xyz
 1  'x, y, z'
loop_
 _atom_site_type_symbol
 _atom_site_label
 _atom_site_symmetry_multiplicity
 _atom_site_fract_x
 _atom_site_fract_y
 _atom_site_fract_z
 _atom_site_fract_occupancy
 I  I1  1  0.35208  0.57627  0.47386  1
 I  I2  1  0.14792  0.42373  0.97386  1
 I  I3  1  0.23387  0.20738  0.24772  1
 I  I4  1  0.26613  0.79262  0.74772  1
 I  I5  1  0.76613  0.70738  0.25228  1
 I  I6  1  0.73387  0.29262  0.75228  1
 I  I7  1  0.64792  0.07627  0.02614  1
 I  I8  1  0.85208  0.92373  0.52614  1
 Mg  Mg1  1  0.17074  0.09146  0.69552  1
 Mg  Mg2  1  0.67074  0.40854  0.30448  1
 Mg  Mg3  1  0.32926  0.90854  0.19552  1
 Mg  Mg4  1  0.82926  0.59146  0.80448  1
 O  O1  1  0.46710  0.80017  0.01782  1
 O  O2  1  0.01187  0.33224  0.10937  1
 O  O3  1  0.04129  0.15548  0.02193  1
 O  O4  1  0.03290  0.19983  0.51782  1
 O  O5  1  0.10975  0.98223  0.42213  1
 O  O6  1  0.10888  0.88068  0.87813  1
 O  O7  1  0.95871  0.65548  0.47807  1
 O  O8  1  0.32974  0.45014  0.25526  1
 O  O9  1  0.39112  0.11932  0.37813  1
 O  O10  1  0.39025  0.01777  0.92213  1
 O  O11  1  0.17026  0.54986  0.75526  1
 O  O12  1  0.67026  0.95014  0.24474  1
 O  O13  1  0.54129  0.34452  0.97807  1
 O  O14  1  0.53290  0.30017  0.48218  1
 O  O15  1  0.60975  0.51777  0.57787  1
 O  O16  1  0.60888  0.61932  0.12187  1
 O  O17  1  0.45871  0.84452  0.52193  1
 O  O18  1  0.82974  0.04986  0.74474  1
 O  O19  1  0.89112  0.38068  0.62187  1
 O  O20  1  0.89025  0.48223  0.07787  1
 O  O21  1  0.96710  0.69983  0.98218  1
 O  O22  1  0.51187  0.16776  0.89063  1
 O  O23  1  0.48813  0.66776  0.60937  1
 O  O24  1  -0.01187  0.83224  0.39063  1
