CIF file written using JARVIS-Tools package.
data_Bi14Te13S8
_symmetry_space_group_name_H-M  'R-3'
_cell_length_a       12.1086
_cell_length_b       12.1086
_cell_length_c       12.1086
_cell_angle_alpha    55.775
_cell_angle_beta     55.775
_cell_angle_gamma    55.775

_symmetry_Int_Tables_number  148
_chemical_formula_structural  Bi14Te13S8
_chemical_formula_sum  Bi4Te3S8
_cell_volume  1132.344776625451
_cell_formula_units_Z  1
loop_
  _symmetry_equiv_pos_site_id
 _symmetry_equiv_pos_as_xyz
 1  'x, y, z'
loop_
 _atom_site_type_symbol
 _atom_site_label
 _atom_site_symmetry_multiplicity
 _atom_site_fract_x
 _atom_site_fract_y
 _atom_site_fract_z
 _atom_site_fract_occupancy
 Bi  Bi1  1  0.39255  0.39255  0.39255  1
 Bi  Bi2  1  0.74235  0.88613  0.18628  1
 Bi  Bi3  1  0.25765  0.11387  0.81372  1
 Bi  Bi4  1  0.60745  0.60745  0.60745  1
 Bi  Bi5  1  0.95293  0.53686  0.68096  1
 Bi  Bi6  1  0.81372  0.25765  0.11387  1
 Bi  Bi7  1  0.18628  0.74235  0.88613  1
 Bi  Bi8  1  0.31904  0.04707  0.46314  1
 Bi  Bi9  1  0.68096  0.95293  0.53686  1
 Bi  Bi10  1  0.46314  0.31904  0.04707  1
 Bi  Bi11  1  0.11387  0.81372  0.25765  1
 Bi  Bi12  1  0.53686  0.68096  0.95293  1
 Bi  Bi13  1  0.88613  0.18628  0.74235  1
 Bi  Bi14  1  0.04707  0.46314  0.31904  1
 S  S1  1  0.29239  0.57137  0.13871  1
 S  S2  1  0.42863  0.86129  0.70761  1
 S  S3  1  0.70761  0.42863  0.86129  1
 S  S4  1  0.57137  0.13871  0.29239  1
 S  S5  1  0.76937  0.76937  0.76937  1
 S  S6  1  0.86129  0.70761  0.42863  1
 S  S7  1  0.23063  0.23063  0.23063  1
 S  S8  1  0.13871  0.29239  0.57137  1
 Te  Te1  1  0.20987  0.63268  0.51442  1
 Te  Te2  1  0.79013  0.36732  0.48558  1
 Te  Te3  1  0.93333  0.64139  0.07056  1
 Te  Te4  1  0.92944  0.06667  0.35861  1
 Te  Te5  1  0.36732  0.48558  0.79013  1
 Te  Te6  1  0.00000  0.00000  0.00000  1
 Te  Te7  1  0.64139  0.07056  0.93333  1
 Te  Te8  1  0.07056  0.93333  0.64139  1
 Te  Te9  1  0.63268  0.51442  0.20987  1
 Te  Te10  1  0.06667  0.35861  0.92944  1
 Te  Te11  1  0.48558  0.79013  0.36732  1
 Te  Te12  1  0.51442  0.20987  0.63268  1
 Te  Te13  1  0.35861  0.92944  0.06667  1
