CIF file written using JARVIS-Tools package.
data_NbIO2
_symmetry_space_group_name_H-M  'Pnma'
_cell_length_a       3.8195
_cell_length_b       3.96228
_cell_length_c       21.0417
_cell_angle_alpha    90
_cell_angle_beta     90
_cell_angle_gamma    90

_symmetry_Int_Tables_number  62
_chemical_formula_structural  NbIO2
_chemical_formula_sum  Nb4I4O8
_cell_volume  318.4436307556491
_cell_formula_units_Z  4
loop_
  _symmetry_equiv_pos_site_id
 _symmetry_equiv_pos_as_xyz
 1  'x, y, z'
loop_
 _atom_site_type_symbol
 _atom_site_label
 _atom_site_symmetry_multiplicity
 _atom_site_fract_x
 _atom_site_fract_y
 _atom_site_fract_z
 _atom_site_fract_occupancy
 I  I1  1  0.25000  0.99687  0.67572  1
 I  I2  1  0.75000  0.00313  0.32428  1
 I  I3  1  0.25000  0.50313  0.17572  1
 I  I4  1  0.75000  0.49687  0.82428  1
 Nb  Nb1  1  0.25000  0.54257  0.93287  1
 Nb  Nb2  1  0.75000  0.04257  0.56713  1
 Nb  Nb3  1  0.75000  0.45743  0.06713  1
 Nb  Nb4  1  0.25000  0.95743  0.43287  1
 O  O1  1  0.25000  0.49485  0.42584  1
 O  O2  1  0.75000  0.50515  0.57416  1
 O  O3  1  0.25000  0.00515  0.92584  1
 O  O4  1  0.75000  0.00566  0.46768  1
 O  O5  1  0.25000  0.99434  0.53232  1
 O  O6  1  0.25000  0.50566  0.03232  1
 O  O7  1  0.75000  0.99485  0.07416  1
 O  O8  1  0.75000  0.49434  0.96768  1
