CIF file written using JARVIS-Tools package.
data_SnSO4
_symmetry_space_group_name_H-M  'Pnma'
_cell_length_a       5.46281
_cell_length_b       7.05972
_cell_length_c       8.58216
_cell_angle_alpha    90
_cell_angle_beta     90
_cell_angle_gamma    90

_symmetry_Int_Tables_number  62
_chemical_formula_structural  SnSO4
_chemical_formula_sum  Sn4S4O6
_cell_volume  330.97864144774735
_cell_formula_units_Z  4
loop_
  _symmetry_equiv_pos_site_id
 _symmetry_equiv_pos_as_xyz
 1  'x, y, z'
loop_
 _atom_site_type_symbol
 _atom_site_label
 _atom_site_symmetry_multiplicity
 _atom_site_fract_x
 _atom_site_fract_y
 _atom_site_fract_z
 _atom_site_fract_occupancy
 O  O1  1  0.02677  0.70461  0.59077  1
 O  O2  1  0.75000  0.41051  0.08473  1
 O  O3  1  0.25000  0.58949  0.91527  1
 O  O4  1  0.25000  0.91051  0.41527  1
 O  O5  1  0.97323  0.29539  0.40923  1
 O  O6  1  0.75000  0.46923  0.80103  1
 O  O7  1  0.25000  0.53077  0.19897  1
 O  O8  1  0.75000  0.08949  0.58473  1
 O  O9  1  0.75000  0.03077  0.30103  1
 O  O10  1  0.97323  0.20461  0.90923  1
 O  O11  1  0.47323  0.79539  0.09077  1
 O  O12  1  0.47323  0.70461  0.59077  1
 O  O13  1  0.52677  0.29539  0.40923  1
 O  O14  1  0.02677  0.79539  0.09077  1
 O  O15  1  0.52677  0.20461  0.90923  1
 O  O16  1  0.25000  0.96923  0.69897  1
 S  S1  1  0.75000  0.17414  0.42904  1
 S  S2  1  0.25000  0.82586  0.57096  1
 S  S3  1  0.25000  0.67414  0.07096  1
 S  S4  1  0.75000  0.32586  0.92904  1
 Sn  Sn1  1  0.75000  0.80255  0.78290  1
 Sn  Sn2  1  0.25000  0.19745  0.21710  1
 Sn  Sn3  1  0.25000  0.30255  0.71710  1
 Sn  Sn4  1  0.75000  0.69745  0.28290  1
