CIF file written using JARVIS-Tools package.
data_GaTe
_symmetry_space_group_name_H-M  'C2/m'
_cell_length_a       4.14334
_cell_length_b       9.02508
_cell_length_c       10.5742
_cell_angle_alpha    103.688
_cell_angle_beta     90
_cell_angle_gamma    103.27

_symmetry_Int_Tables_number  12
_chemical_formula_structural  GaTe
_chemical_formula_sum  Ga6Te6
_cell_volume  373.30538085890004
_cell_formula_units_Z  6
loop_
  _symmetry_equiv_pos_site_id
 _symmetry_equiv_pos_as_xyz
 1  'x, y, z'
loop_
 _atom_site_type_symbol
 _atom_site_label
 _atom_site_symmetry_multiplicity
 _atom_site_fract_x
 _atom_site_fract_y
 _atom_site_fract_z
 _atom_site_fract_occupancy
 Ga  Ga1  1  0.13631  0.27263  0.41794  1
 Ga  Ga2  1  0.86369  0.72737  0.58206  1
 Ga  Ga3  1  0.24003  0.48006  0.29946  1
 Ga  Ga4  1  0.75997  0.51994  0.70054  1
 Ga  Ga5  1  0.56306  0.12613  0.08200  1
 Ga  Ga6  1  0.43694  0.87387  0.91800  1
 Te  Te1  1  0.15661  0.31322  0.04924  1
 Te  Te2  1  0.84339  0.68678  0.95076  1
 Te  Te3  1  0.15885  0.31769  0.67804  1
 Te  Te4  1  0.84115  0.68231  0.32196  1
 Te  Te5  1  0.53893  0.07786  0.32756  1
 Te  Te6  1  0.46107  0.92214  0.67244  1
