CIF file written using JARVIS-Tools package.
data_Na2ZnSe2
_symmetry_space_group_name_H-M  'Ibam'
_cell_length_a       6.14387
_cell_length_b       6.64497
_cell_length_c       7.38751
_cell_angle_alpha    116.727
_cell_angle_beta     114.572
_cell_angle_gamma    90

_symmetry_Int_Tables_number  72
_chemical_formula_structural  Na2ZnSe2
_chemical_formula_sum  Na4Zn2Se4
_cell_volume  238.4019947739879
_cell_formula_units_Z  2
loop_
  _symmetry_equiv_pos_site_id
 _symmetry_equiv_pos_as_xyz
 1  'x, y, z'
loop_
 _atom_site_type_symbol
 _atom_site_label
 _atom_site_symmetry_multiplicity
 _atom_site_fract_x
 _atom_site_fract_y
 _atom_site_fract_z
 _atom_site_fract_occupancy
 Na  Na1  1  0.13835  0.47993  0.27671  1
 Na  Na2  1  0.86165  0.52007  0.72329  1
 Na  Na3  1  0.36165  0.20322  0.72329  1
 Na  Na4  1  0.63835  0.79678  0.27671  1
 Se  Se1  1  0.61597  0.33338  0.23194  1
 Se  Se2  1  0.38403  0.66662  0.76806  1
 Se  Se3  1  0.88403  0.10143  0.76806  1
 Se  Se4  1  0.11597  0.89857  0.23194  1
 Zn  Zn1  1  0.25000  0.00000  0.00000  1
 Zn  Zn2  1  0.75000  0.00000  0.00000  1
