CIF file written using JARVIS-Tools package.
data_LiFeSiO4
_symmetry_space_group_name_H-M  'Pna2_1'
_cell_length_a       4.96668
_cell_length_b       6.05735
_cell_length_c       11.0249
_cell_angle_alpha    90
_cell_angle_beta     90
_cell_angle_gamma    90

_symmetry_Int_Tables_number  33
_chemical_formula_structural  LiFeSiO4
_chemical_formula_sum  Li4Fe4Si4O6
_cell_volume  331.68291323622174
_cell_formula_units_Z  4
loop_
  _symmetry_equiv_pos_site_id
 _symmetry_equiv_pos_as_xyz
 1  'x, y, z'
loop_
 _atom_site_type_symbol
 _atom_site_label
 _atom_site_symmetry_multiplicity
 _atom_site_fract_x
 _atom_site_fract_y
 _atom_site_fract_z
 _atom_site_fract_occupancy
 Fe  Fe1  1  0.25582  0.74083  0.08270  1
 Fe  Fe2  1  0.75582  0.24083  0.41730  1
 Fe  Fe3  1  0.25582  0.75917  0.58270  1
 Fe  Fe4  1  0.75582  0.25917  0.91730  1
 Li  Li1  1  0.75573  0.99110  0.16796  1
 Li  Li2  1  0.25573  0.49110  0.33204  1
 Li  Li3  1  0.75573  0.50890  0.66796  1
 Li  Li4  1  0.25573  0.00890  0.83204  1
 O  O1  1  0.92061  0.23020  0.07110  1
 O  O2  1  0.83270  0.96821  0.33893  1
 O  O3  1  0.85877  0.51559  0.34537  1
 O  O4  1  0.88270  0.75404  0.05218  1
 O  O5  1  0.33270  0.46821  0.16107  1
 O  O6  1  0.42061  0.76980  0.92890  1
 O  O7  1  0.38270  0.25404  0.44782  1
 O  O8  1  0.35877  0.01559  0.15463  1
 O  O9  1  0.88270  0.74596  0.55218  1
 O  O10  1  0.85877  0.98441  0.84537  1
 O  O11  1  0.33270  0.03179  0.66107  1
 O  O12  1  0.35877  0.48441  0.65463  1
 O  O13  1  0.42061  0.73020  0.42890  1
 O  O14  1  0.83270  0.53179  0.83893  1
 O  O15  1  0.92061  0.26980  0.57110  1
 O  O16  1  0.38270  0.24596  0.94782  1
 Si  Si1  1  0.25130  0.24233  0.08627  1
 Si  Si2  1  0.75130  0.74233  0.41373  1
 Si  Si3  1  0.25130  0.25767  0.58627  1
 Si  Si4  1  0.75130  0.75767  0.91373  1
