CIF file written using JARVIS-Tools package.
data_LiMnPO4
_symmetry_space_group_name_H-M  'P6_222'
_cell_length_a       5.25684
_cell_length_b       5.25684
_cell_length_c       13.2208
_cell_angle_alpha    90
_cell_angle_beta     90
_cell_angle_gamma    120

_symmetry_Int_Tables_number  180
_chemical_formula_structural  LiMnPO4
_chemical_formula_sum  Li3Mn3P3O2
_cell_volume  316.40161996019697
_cell_formula_units_Z  3
loop_
  _symmetry_equiv_pos_site_id
 _symmetry_equiv_pos_as_xyz
 1  'x, y, z'
loop_
 _atom_site_type_symbol
 _atom_site_label
 _atom_site_symmetry_multiplicity
 _atom_site_fract_x
 _atom_site_fract_y
 _atom_site_fract_z
 _atom_site_fract_occupancy
 Li  Li1  1  0.00000  0.00000  0.83333  1
 Li  Li2  1  0.00000  0.00000  0.50000  1
 Li  Li3  1  0.00000  0.00000  0.16667  1
 Mn  Mn1  1  0.50000  0.50000  0.33333  1
 Mn  Mn2  1  -0.00000  0.50000  0.66667  1
 Mn  Mn3  1  0.50000  -0.00000  0.00000  1
 O  O1  1  0.40353  0.22248  0.89892  1
 O  O2  1  0.59647  0.77752  0.89892  1
 O  O3  1  0.77752  0.59647  0.76774  1
 O  O4  1  0.81895  0.59647  0.23226  1
 O  O5  1  0.40353  0.18105  0.43441  1
 O  O6  1  0.81895  0.22248  0.10108  1
 O  O7  1  0.22248  0.40353  0.76774  1
 O  O8  1  0.18105  0.77752  0.10108  1
 O  O9  1  0.77752  0.18105  0.56559  1
 O  O10  1  0.18105  0.40353  0.23226  1
 O  O11  1  0.22248  0.81895  0.56559  1
 O  O12  1  0.59647  0.81895  0.43441  1
 P  P1  1  0.50000  -0.00000  0.50000  1
 P  P2  1  -0.00000  0.50000  0.16667  1
 P  P3  1  0.50000  0.50000  0.83333  1
