CIF file written using JARVIS-Tools package.
data_CrCo3O8
_symmetry_space_group_name_H-M  'P6_3mc'
_cell_length_a       5.60872
_cell_length_b       5.60861
_cell_length_c       8.54718
_cell_angle_alpha    90.0008
_cell_angle_beta     89.9998
_cell_angle_gamma    119.999

_symmetry_Int_Tables_number  186
_chemical_formula_structural  CrCo3O8
_chemical_formula_sum  Cr2Co6O6
_cell_volume  232.85014000516563
_cell_formula_units_Z  2
loop_
  _symmetry_equiv_pos_site_id
 _symmetry_equiv_pos_as_xyz
 1  'x, y, z'
loop_
 _atom_site_type_symbol
 _atom_site_label
 _atom_site_symmetry_multiplicity
 _atom_site_fract_x
 _atom_site_fract_y
 _atom_site_fract_z
 _atom_site_fract_occupancy
 Co  Co1  1  0.16809  0.83182  0.21081  1
 Co  Co2  1  0.16809  0.33628  0.21081  1
 Co  Co3  1  0.66363  0.83182  0.21080  1
 Co  Co4  1  0.33637  0.16820  0.71080  1
 Co  Co5  1  0.83191  0.66373  0.71081  1
 Co  Co6  1  0.83192  0.16819  0.71081  1
 Cr  Cr1  1  0.33339  0.66670  0.50017  1
 Cr  Cr2  1  0.66661  0.33331  0.00017  1
 O  O1  1  0.17220  0.82789  0.59789  1
 O  O2  1  0.04450  0.52226  0.33851  1
 O  O3  1  0.33326  0.66663  0.09955  1
 O  O4  1  0.95550  0.47776  0.83851  1
 O  O5  1  0.00008  0.00005  0.81662  1
 O  O6  1  0.17220  0.34433  0.59788  1
 O  O7  1  -0.00007  -0.00003  0.31662  1
 O  O8  1  0.52232  0.47778  0.83848  1
 O  O9  1  0.34422  0.17212  0.09786  1
 O  O10  1  0.65578  0.82790  0.59786  1
 O  O11  1  0.47768  0.95546  0.33849  1
 O  O12  1  0.52232  0.04455  0.83848  1
 O  O13  1  0.66674  0.33338  0.59955  1
 O  O14  1  0.82780  0.65569  0.09789  1
 O  O15  1  0.47769  0.52224  0.33848  1
 O  O16  1  0.82780  0.17213  0.09788  1
