CIF file written using JARVIS-Tools package.
data_SnBi2Te4
_symmetry_space_group_name_H-M  'R-3m'
_cell_length_a       14.3316
_cell_length_b       14.3316
_cell_length_c       14.3316
_cell_angle_alpha    17.9561
_cell_angle_beta     17.9561
_cell_angle_gamma    17.9561

_symmetry_Int_Tables_number  166
_chemical_formula_structural  SnBi2Te4
_chemical_formula_sum  SnBi2Te4
_cell_volume  244.2682967763474
_cell_formula_units_Z  1
loop_
  _symmetry_equiv_pos_site_id
 _symmetry_equiv_pos_as_xyz
 1  'x, y, z'
loop_
 _atom_site_type_symbol
 _atom_site_label
 _atom_site_symmetry_multiplicity
 _atom_site_fract_x
 _atom_site_fract_y
 _atom_site_fract_z
 _atom_site_fract_occupancy
 Bi  Bi1  1  0.42641  0.42641  0.42641  1
 Bi  Bi2  1  0.57359  0.57359  0.57359  1
 Sn  Sn1  1  0.00000  0.00000  0.00000  1
 Te  Te1  1  0.13358  0.13358  0.13358  1
 Te  Te2  1  0.28899  0.28899  0.28899  1
 Te  Te3  1  0.71101  0.71101  0.71101  1
 Te  Te4  1  0.86642  0.86642  0.86642  1
