CIF file written using JARVIS-Tools package.
data_Mg2SiO4
_symmetry_space_group_name_H-M  'Cmc2_1'
_cell_length_a       2.78976
_cell_length_b       4.9267
_cell_length_c       9.43497
_cell_angle_alpha    90
_cell_angle_beta     90
_cell_angle_gamma    106.447

_symmetry_Int_Tables_number  36
_chemical_formula_structural  Mg2SiO4
_chemical_formula_sum  Mg4Si2O8
_cell_volume  124.37103720739505
_cell_formula_units_Z  2
loop_
  _symmetry_equiv_pos_site_id
 _symmetry_equiv_pos_as_xyz
 1  'x, y, z'
loop_
 _atom_site_type_symbol
 _atom_site_label
 _atom_site_symmetry_multiplicity
 _atom_site_fract_x
 _atom_site_fract_y
 _atom_site_fract_z
 _atom_site_fract_occupancy
 Mg  Mg1  1  0.13854  0.27708  0.85366  1
 Mg  Mg2  1  0.86146  0.72292  0.35366  1
 Mg  Mg3  1  0.60928  0.21857  0.18506  1
 Mg  Mg4  1  0.39072  0.78143  0.68506  1
 O  O1  1  0.49420  0.98839  0.93763  1
 O  O2  1  0.50580  0.01161  0.43763  1
 O  O3  1  0.25172  0.50345  0.04587  1
 O  O4  1  0.74828  0.49655  0.54587  1
 O  O5  1  0.79421  0.58842  0.82640  1
 O  O6  1  0.20579  0.41158  0.32640  1
 O  O7  1  0.04467  0.08934  0.66289  1
 O  O8  1  0.95533  0.91066  0.16289  1
 Si  Si1  1  0.12699  0.25399  0.49930  1
 Si  Si2  1  0.87301  0.74601  0.99930  1
