CIF file written using JARVIS-Tools package.
data_PH6N2O2
_symmetry_space_group_name_H-M  'P2_1/c'
_cell_length_a       7.72209
_cell_length_b       8.20354
_cell_length_c       7.04753
_cell_angle_alpha    90
_cell_angle_beta     117.511
_cell_angle_gamma    90

_symmetry_Int_Tables_number  14
_chemical_formula_structural  PH6N2O2
_chemical_formula_sum  P4H24N8O8
_cell_volume  395.96695569247487
_cell_formula_units_Z  4
loop_
  _symmetry_equiv_pos_site_id
 _symmetry_equiv_pos_as_xyz
 1  'x, y, z'
loop_
 _atom_site_type_symbol
 _atom_site_label
 _atom_site_symmetry_multiplicity
 _atom_site_fract_x
 _atom_site_fract_y
 _atom_site_fract_z
 _atom_site_fract_occupancy
 H  H1  1  0.20404  0.72098  0.54205  1
 H  H2  1  0.30214  0.09276  0.36905  1
 H  H3  1  0.93013  0.19197  0.82921  1
 H  H4  1  0.06987  0.69197  0.67079  1
 H  H5  1  0.06987  0.80803  0.17079  1
 H  H6  1  0.93013  0.30803  0.32921  1
 H  H7  1  0.79596  0.22098  0.95795  1
 H  H8  1  0.20404  0.77902  0.04205  1
 H  H9  1  0.79596  0.27902  0.45795  1
 H  H10  1  0.69786  0.90724  0.63095  1
 H  H11  1  0.69786  0.59276  0.13095  1
 H  H12  1  0.52147  0.93602  0.70862  1
 H  H13  1  0.24093  0.42970  0.60112  1
 H  H14  1  0.30214  0.40724  0.86905  1
 H  H15  1  0.75907  0.57030  0.39888  1
 H  H16  1  0.75907  0.92970  0.89888  1
 H  H17  1  0.34753  0.24415  0.22940  1
 H  H18  1  0.65247  0.74415  0.27060  1
 H  H19  1  0.34753  0.25585  0.72940  1
 H  H20  1  0.65247  0.75585  0.77060  1
 H  H21  1  0.52147  0.56398  0.20862  1
 H  H22  1  0.47853  0.43602  0.79138  1
 H  H23  1  0.24093  0.07030  0.10112  1
 H  H24  1  0.47853  0.06398  0.29138  1
 N  N1  1  0.82883  0.23293  0.34306  1
 N  N2  1  0.82883  0.26707  0.84306  1
 N  N3  1  0.65771  0.88196  0.75041  1
 N  N4  1  0.17117  0.73293  0.15694  1
 N  N5  1  0.17117  0.76707  0.65694  1
 N  N6  1  0.34229  0.11804  0.24959  1
 N  N7  1  0.65771  0.61804  0.25041  1
 N  N8  1  0.34229  0.38196  0.74959  1
 O  O1  1  0.09751  0.48374  0.33432  1
 O  O2  1  0.90249  0.98374  0.16568  1
 O  O3  1  0.09751  0.01626  0.83432  1
 O  O4  1  0.69533  0.54943  0.87016  1
 O  O5  1  0.90249  0.51626  0.66568  1
 O  O6  1  0.69533  0.95057  0.37016  1
 O  O7  1  0.30467  0.04943  0.62984  1
 O  O8  1  0.30467  0.45057  0.12984  1
 P  P1  1  0.86652  0.03207  0.35260  1
 P  P2  1  0.13348  0.53207  0.14740  1
 P  P3  1  0.13348  0.96793  0.64740  1
 P  P4  1  0.86652  0.46793  0.85260  1
