CIF file written using JARVIS-Tools package.
data_CdC2N2
_symmetry_space_group_name_H-M  'P-43m'
_cell_length_a       6.42251
_cell_length_b       6.42251
_cell_length_c       6.42251
_cell_angle_alpha    90
_cell_angle_beta     90
_cell_angle_gamma    90

_symmetry_Int_Tables_number  215
_chemical_formula_structural  CdC2N2
_chemical_formula_sum  Cd2C4N4
_cell_volume  264.92038471999064
_cell_formula_units_Z  2
loop_
  _symmetry_equiv_pos_site_id
 _symmetry_equiv_pos_as_xyz
 1  'x, y, z'
loop_
 _atom_site_type_symbol
 _atom_site_label
 _atom_site_symmetry_multiplicity
 _atom_site_fract_x
 _atom_site_fract_y
 _atom_site_fract_z
 _atom_site_fract_occupancy
 C  C1  1  0.19953  0.80047  0.80047  1
 C  C2  1  0.80047  0.80047  0.19953  1
 C  C3  1  0.19953  0.19953  0.19953  1
 C  C4  1  0.80047  0.19953  0.80047  1
 Cd  Cd1  1  0.50000  0.50000  0.50000  1
 Cd  Cd2  1  0.00000  0.00000  0.00000  1
 N  N1  1  0.69589  0.69589  0.30411  1
 N  N2  1  0.30411  0.69589  0.69589  1
 N  N3  1  0.30411  0.30411  0.30411  1
 N  N4  1  0.69589  0.30411  0.69589  1
