CIF file written using JARVIS-Tools package.
data_Mg2SiO4
_symmetry_space_group_name_H-M  'P-1'
_cell_length_a       5.0768
_cell_length_b       5.7606
_cell_length_c       10.0009
_cell_angle_alpha    92.0816
_cell_angle_beta     99.1048
_cell_angle_gamma    107.564

_symmetry_Int_Tables_number  2
_chemical_formula_structural  Mg2SiO4
_chemical_formula_sum  Mg8Si4O6
_cell_volume  274.23123285254115
_cell_formula_units_Z  4
loop_
  _symmetry_equiv_pos_site_id
 _symmetry_equiv_pos_as_xyz
 1  'x, y, z'
loop_
 _atom_site_type_symbol
 _atom_site_label
 _atom_site_symmetry_multiplicity
 _atom_site_fract_x
 _atom_site_fract_y
 _atom_site_fract_z
 _atom_site_fract_occupancy
 Mg  Mg1  1  0.01269  0.31553  0.88847  1
 Mg  Mg2  1  0.97420  0.98668  0.07950  1
 Mg  Mg3  1  0.99275  0.26717  0.34092  1
 Mg  Mg4  1  0.49346  0.15110  0.48398  1
 Mg  Mg5  1  0.44740  0.85111  0.20585  1
 Mg  Mg6  1  0.99416  0.03505  0.62705  1
 Mg  Mg7  1  0.53949  0.45111  0.76212  1
 Mg  Mg8  1  0.49345  0.65111  0.48398  1
 O  O1  1  0.19958  0.02887  0.30477  1
 O  O2  1  0.78733  0.27335  0.66321  1
 O  O3  1  0.26225  0.11266  0.79875  1
 O  O4  1  0.72465  0.18956  0.16923  1
 O  O5  1  0.24080  0.62562  0.77585  1
 O  O6  1  0.77948  0.70022  0.65643  1
 O  O7  1  0.20742  0.60200  0.31155  1
 O  O8  1  0.73636  0.46398  0.95027  1
 O  O9  1  0.20425  0.82236  0.53411  1
 O  O10  1  0.71646  0.97829  0.90445  1
 O  O11  1  0.78265  0.47986  0.43386  1
 O  O12  1  0.22738  0.36316  0.55368  1
 O  O13  1  0.74610  0.67661  0.19212  1
 O  O14  1  0.75953  0.93906  0.41430  1
 O  O15  1  0.25053  0.83824  0.01770  1
 O  O16  1  0.27044  0.32393  0.06352  1
 Si  Si1  1  0.00271  0.54616  0.61335  1
 Si  Si2  1  0.98420  0.75607  0.35462  1
 Si  Si3  1  0.37505  0.90236  0.87853  1
 Si  Si4  1  0.61184  0.39986  0.08944  1
