CIF file written using JARVIS-Tools package.
data_ZnC2S2O6F6
_symmetry_space_group_name_H-M  'R-3'
_cell_length_a       10.7446
_cell_length_b       10.7446
_cell_length_c       10.7446
_cell_angle_alpha    26.4574
_cell_angle_beta     26.4574
_cell_angle_gamma    26.4574

_symmetry_Int_Tables_number  148
_chemical_formula_structural  ZnC2S2O6F6
_chemical_formula_sum  ZnC2S2O6F6
_cell_volume  217.02170604567695
_cell_formula_units_Z  1
loop_
  _symmetry_equiv_pos_site_id
 _symmetry_equiv_pos_as_xyz
 1  'x, y, z'
loop_
 _atom_site_type_symbol
 _atom_site_label
 _atom_site_symmetry_multiplicity
 _atom_site_fract_x
 _atom_site_fract_y
 _atom_site_fract_z
 _atom_site_fract_occupancy
 C  C1  1  0.77832  0.77832  0.77832  1
 C  C2  1  0.22168  0.22168  0.22168  1
 F  F1  1  0.94002  0.22625  0.45564  1
 F  F2  1  0.22625  0.45564  0.94002  1
 F  F3  1  0.77375  0.54436  0.05998  1
 F  F4  1  0.54436  0.05998  0.77375  1
 F  F5  1  0.05998  0.77375  0.54436  1
 F  F6  1  0.45564  0.94002  0.22625  1
 O  O1  1  0.01920  0.59304  0.26637  1
 O  O2  1  0.73363  0.98080  0.40696  1
 O  O3  1  0.40696  0.73363  0.98080  1
 O  O4  1  0.59304  0.26637  0.01920  1
 O  O5  1  0.26637  0.01920  0.59304  1
 O  O6  1  0.98080  0.40696  0.73363  1
 S  S1  1  0.71845  0.71845  0.71845  1
 S  S2  1  0.28155  0.28155  0.28155  1
 Zn  Zn1  1  0.00000  0.00000  0.00000  1
