CIF file written using JARVIS-Tools package.
data_BC
_symmetry_space_group_name_H-M  'P6_3mc'
_cell_length_a       2.60118
_cell_length_b       2.60118
_cell_length_c       4.64701
_cell_angle_alpha    90
_cell_angle_beta     90
_cell_angle_gamma    120

_symmetry_Int_Tables_number  186
_chemical_formula_structural  BC
_chemical_formula_sum  B2C2
_cell_volume  27.229927720573457
_cell_formula_units_Z  2
loop_
  _symmetry_equiv_pos_site_id
 _symmetry_equiv_pos_as_xyz
 1  'x, y, z'
loop_
 _atom_site_type_symbol
 _atom_site_label
 _atom_site_symmetry_multiplicity
 _atom_site_fract_x
 _atom_site_fract_y
 _atom_site_fract_z
 _atom_site_fract_occupancy
 B  B1  1  0.33333  0.66667  0.01940  1
 B  B2  1  0.66667  0.33333  0.51940  1
 C  C1  1  0.33333  0.66667  0.35561  1
 C  C2  1  0.66667  0.33333  0.85561  1
