CIF file written using JARVIS-Tools package.
data_CuO2F
_symmetry_space_group_name_H-M  'Pmn2_1'
_cell_length_a       3.15469
_cell_length_b       4.56746
_cell_length_c       5.86766
_cell_angle_alpha    90
_cell_angle_beta     90
_cell_angle_gamma    90

_symmetry_Int_Tables_number  31
_chemical_formula_structural  CuO2F
_chemical_formula_sum  Cu2O4F2
_cell_volume  84.5465240554534
_cell_formula_units_Z  2
loop_
  _symmetry_equiv_pos_site_id
 _symmetry_equiv_pos_as_xyz
 1  'x, y, z'
loop_
 _atom_site_type_symbol
 _atom_site_label
 _atom_site_symmetry_multiplicity
 _atom_site_fract_x
 _atom_site_fract_y
 _atom_site_fract_z
 _atom_site_fract_occupancy
 Cu  Cu1  1  0.00000  0.67607  0.79394  1
 Cu  Cu2  1  0.50000  0.17607  0.20606  1
 F  F1  1  0.00000  0.34775  0.01507  1
 F  F2  1  0.50000  0.84775  0.98493  1
 O  O1  1  0.00000  0.99673  0.38152  1
 O  O2  1  0.50000  0.49673  0.61848  1
 O  O3  1  0.50000  0.52492  0.39481  1
 O  O4  1  0.00000  0.02492  0.60519  1
