CIF file written using JARVIS-Tools package.
data_Na3DyCl6
_symmetry_space_group_name_H-M  'P2_1/c'
_cell_length_a       6.75027
_cell_length_b       7.26133
_cell_length_c       12.0367
_cell_angle_alpha    90
_cell_angle_beta     123.008
_cell_angle_gamma    90

_symmetry_Int_Tables_number  14
_chemical_formula_structural  Na3DyCl6
_chemical_formula_sum  Na6Dy2Cl2
_cell_volume  494.75865937387846
_cell_formula_units_Z  2
loop_
  _symmetry_equiv_pos_site_id
 _symmetry_equiv_pos_as_xyz
 1  'x, y, z'
loop_
 _atom_site_type_symbol
 _atom_site_label
 _atom_site_symmetry_multiplicity
 _atom_site_fract_x
 _atom_site_fract_y
 _atom_site_fract_z
 _atom_site_fract_occupancy
 Cl  Cl1  1  0.75301  0.30845  0.92101  1
 Cl  Cl2  1  0.90510  0.56258  0.25832  1
 Cl  Cl3  1  0.24699  0.69155  0.07899  1
 Cl  Cl4  1  0.90510  0.93742  0.75832  1
 Cl  Cl5  1  0.09490  0.43742  0.74168  1
 Cl  Cl6  1  0.09490  0.06258  0.24168  1
 Cl  Cl7  1  0.61170  0.67964  0.43097  1
 Cl  Cl8  1  0.61170  0.82036  0.93097  1
 Cl  Cl9  1  0.38830  0.32036  0.56903  1
 Cl  Cl10  1  0.75301  0.19155  0.42101  1
 Cl  Cl11  1  0.24699  0.80845  0.57899  1
 Cl  Cl12  1  0.38830  0.17964  0.06903  1
 Dy  Dy1  1  0.00000  0.50000  0.50000  1
 Dy  Dy2  1  0.00000  0.00000  0.00000  1
 Na  Na1  1  0.50000  0.50000  0.00000  1
 Na  Na2  1  0.50000  0.00000  0.50000  1
 Na  Na3  1  0.71039  0.58666  0.74290  1
 Na  Na4  1  0.28961  0.08666  0.75710  1
 Na  Na5  1  0.28961  0.41334  0.25710  1
 Na  Na6  1  0.71039  0.91334  0.24290  1
