CIF file written using JARVIS-Tools package.
data_CrPO5
_symmetry_space_group_name_H-M  'P4/n'
_cell_length_a       5.92983
_cell_length_b       5.92983
_cell_length_c       4.48587
_cell_angle_alpha    90
_cell_angle_beta     90
_cell_angle_gamma    90

_symmetry_Int_Tables_number  85
_chemical_formula_structural  CrPO5
_chemical_formula_sum  Cr2P2O0
_cell_volume  157.73634404587963
_cell_formula_units_Z  2
loop_
  _symmetry_equiv_pos_site_id
 _symmetry_equiv_pos_as_xyz
 1  'x, y, z'
loop_
 _atom_site_type_symbol
 _atom_site_label
 _atom_site_symmetry_multiplicity
 _atom_site_fract_x
 _atom_site_fract_y
 _atom_site_fract_z
 _atom_site_fract_occupancy
 Cr  Cr1  1  0.25000  0.25000  0.79722  1
 Cr  Cr2  1  0.75000  0.75000  0.20278  1
 O  O1  1  0.04950  0.81490  0.29892  1
 O  O2  1  0.18510  0.54950  0.70108  1
 O  O3  1  0.25000  0.25000  0.14702  1
 O  O4  1  0.31490  0.95050  0.70108  1
 O  O5  1  0.45050  0.68510  0.29892  1
 O  O6  1  0.54950  0.31490  0.70108  1
 O  O7  1  0.68510  0.04950  0.29892  1
 O  O8  1  0.75000  0.75000  0.85298  1
 O  O9  1  0.81490  0.45050  0.29892  1
 O  O10  1  0.95050  0.18510  0.70108  1
 P  P1  1  0.25000  0.75000  0.50000  1
 P  P2  1  0.75000  0.25000  0.50000  1
