CIF file written using JARVIS-Tools package.
data_YWN3
_symmetry_space_group_name_H-M  'Pmc2_1'
_cell_length_a       3.59673
_cell_length_b       5.99661
_cell_length_c       6.09162
_cell_angle_alpha    90
_cell_angle_beta     90
_cell_angle_gamma    90

_symmetry_Int_Tables_number  26
_chemical_formula_structural  YWN3
_chemical_formula_sum  Y2W2N6
_cell_volume  131.38511454251432
_cell_formula_units_Z  2
loop_
  _symmetry_equiv_pos_site_id
 _symmetry_equiv_pos_as_xyz
 1  'x, y, z'
loop_
 _atom_site_type_symbol
 _atom_site_label
 _atom_site_symmetry_multiplicity
 _atom_site_fract_x
 _atom_site_fract_y
 _atom_site_fract_z
 _atom_site_fract_occupancy
 N  N1  1  0.50000  0.10455  0.58521  1
 N  N2  1  0.50000  0.58598  0.69337  1
 N  N3  1  0.00000  0.77250  0.41679  1
 N  N4  1  0.50000  0.89545  0.08521  1
 N  N5  1  0.00000  0.22750  0.91679  1
 N  N6  1  0.50000  0.41402  0.19337  1
 W  W1  1  0.50000  0.69061  0.31890  1
 W  W2  1  0.50000  0.30939  0.81890  1
 Y  Y1  1  0.00000  0.15325  0.29026  1
 Y  Y2  1  0.00000  0.84675  0.79026  1
