CIF file written using JARVIS-Tools package.
data_TeMoWSe3
_symmetry_space_group_name_H-M  'P3m1'
_cell_length_a       3.38668
_cell_length_b       3.38652
_cell_length_c       34.7527
_cell_angle_alpha    90.0001
_cell_angle_beta     90.0018
_cell_angle_gamma    120.002

_symmetry_Int_Tables_number  156
_chemical_formula_structural  TeMoWSe3
_chemical_formula_sum  Te2Mo2W2Se6
_cell_volume  345.17358584049197
_cell_formula_units_Z  2
loop_
  _symmetry_equiv_pos_site_id
 _symmetry_equiv_pos_as_xyz
 1  'x, y, z'
loop_
 _atom_site_type_symbol
 _atom_site_label
 _atom_site_symmetry_multiplicity
 _atom_site_fract_x
 _atom_site_fract_y
 _atom_site_fract_z
 _atom_site_fract_occupancy
 Mo  Mo1  1  0.33303  0.66631  0.09058  1
 Mo  Mo2  1  0.66679  0.33356  0.27869  1
 Se  Se1  1  0.33353  0.66699  0.32625  1
 Se  Se2  1  0.66619  0.33267  0.04306  1
 Se  Se3  1  0.66689  0.33369  0.41892  1
 Se  Se4  1  0.66642  0.33307  0.13816  1
 Se  Se5  1  0.66666  0.33316  0.51453  1
 Se  Se6  1  0.33340  0.66681  0.23112  1
 Te  Te1  1  0.33351  0.66687  0.72132  1
 Te  Te2  1  0.33344  0.66680  0.61247  1
 W  W1  1  0.33340  0.66667  0.46672  1
 W  W2  1  0.66675  0.33340  0.66694  1
