CIF file written using JARVIS-Tools package.
data_CrSiH12O6F6
_symmetry_space_group_name_H-M  'R-3'
_cell_length_a       6.27977
_cell_length_b       6.27977
_cell_length_c       6.27977
_cell_angle_alpha    96.3055
_cell_angle_beta     96.3056
_cell_angle_gamma    96.3055

_symmetry_Int_Tables_number  148
_chemical_formula_structural  CrSiH12O6F6
_chemical_formula_sum  CrSiH2O6F6
_cell_volume  242.78930251497653
_cell_formula_units_Z  1
loop_
  _symmetry_equiv_pos_site_id
 _symmetry_equiv_pos_as_xyz
 1  'x, y, z'
loop_
 _atom_site_type_symbol
 _atom_site_label
 _atom_site_symmetry_multiplicity
 _atom_site_fract_x
 _atom_site_fract_y
 _atom_site_fract_z
 _atom_site_fract_occupancy
 Cr  Cr1  1  0.00000  0.00000  0.00000  1
 F  F1  1  0.56941  0.29278  0.32889  1
 F  F2  1  0.67111  0.43059  0.70722  1
 F  F3  1  0.70722  0.67111  0.43059  1
 F  F4  1  0.29278  0.32889  0.56941  1
 F  F5  1  0.43059  0.70722  0.67111  1
 F  F6  1  0.32889  0.56941  0.29278  1
 H  H1  1  0.67516  0.77484  0.17841  1
 H  H2  1  0.42260  0.19283  0.06213  1
 H  H3  1  0.82159  0.32484  0.22516  1
 H  H4  1  0.93787  0.57740  0.80717  1
 H  H5  1  0.77484  0.17841  0.67516  1
 H  H6  1  0.19283  0.06213  0.42260  1
 H  H7  1  0.17841  0.67516  0.77484  1
 H  H8  1  0.06213  0.42260  0.19283  1
 H  H9  1  0.57740  0.80717  0.93787  1
 H  H10  1  0.22516  0.82159  0.32484  1
 H  H11  1  0.32484  0.22516  0.82159  1
 H  H12  1  0.80717  0.93787  0.57740  1
 O  O1  1  0.93851  0.31440  0.13344  1
 O  O2  1  0.06149  0.68560  0.86656  1
 O  O3  1  0.31440  0.13344  0.93851  1
 O  O4  1  0.68560  0.86656  0.06149  1
 O  O5  1  0.86656  0.06149  0.68560  1
 O  O6  1  0.13344  0.93851  0.31440  1
 Si  Si1  1  0.50000  0.50000  0.50000  1
