CIF file written using JARVIS-Tools package.
data_DyAl8Cu4
_symmetry_space_group_name_H-M  'I4/mmm'
_cell_length_a       5.16987
_cell_length_b       6.75461
_cell_length_c       6.75461
_cell_angle_alpha    98.4215
_cell_angle_beta     67.4994
_cell_angle_gamma    112.501

_symmetry_Int_Tables_number  139
_chemical_formula_structural  DyAl8Cu4
_chemical_formula_sum  DyAl8Cu4
_cell_volume  201.32881256478717
_cell_formula_units_Z  1
loop_
  _symmetry_equiv_pos_site_id
 _symmetry_equiv_pos_as_xyz
 1  'x, y, z'
loop_
 _atom_site_type_symbol
 _atom_site_label
 _atom_site_symmetry_multiplicity
 _atom_site_fract_x
 _atom_site_fract_y
 _atom_site_fract_z
 _atom_site_fract_occupancy
 Al  Al1  1  0.28125  0.78125  0.21875  1
 Al  Al2  1  0.50000  0.21876  0.21876  1
 Al  Al3  1  -0.00000  0.34715  0.34715  1
 Al  Al4  1  0.65285  0.65285  0.34715  1
 Al  Al5  1  0.34715  0.34715  0.65285  1
 Al  Al6  1  -0.00000  0.65285  0.65285  1
 Al  Al7  1  0.50000  0.78125  0.78125  1
 Al  Al8  1  0.71875  0.21875  0.78125  1
 Cu  Cu1  1  0.00000  0.50000  -0.00000  1
 Cu  Cu2  1  0.50000  0.50000  -0.00000  1
 Cu  Cu3  1  0.00000  -0.00000  0.50000  1
 Cu  Cu4  1  0.50000  -0.00000  0.50000  1
 Dy  Dy1  1  0.00000  0.00000  0.00000  1
