CIF file written using JARVIS-Tools package.
data_MnO2
_symmetry_space_group_name_H-M  'Pmmn'
_cell_length_a       3.77902
_cell_length_b       5.86019
_cell_length_c       2.84733
_cell_angle_alpha    90
_cell_angle_beta     90
_cell_angle_gamma    90

_symmetry_Int_Tables_number  59
_chemical_formula_structural  MnO2
_chemical_formula_sum  Mn2O4
_cell_volume  63.05641727343416
_cell_formula_units_Z  2
loop_
  _symmetry_equiv_pos_site_id
 _symmetry_equiv_pos_as_xyz
 1  'x, y, z'
loop_
 _atom_site_type_symbol
 _atom_site_label
 _atom_site_symmetry_multiplicity
 _atom_site_fract_x
 _atom_site_fract_y
 _atom_site_fract_z
 _atom_site_fract_occupancy
 Mn  Mn1  1  0.25000  0.66482  0.25000  1
 Mn  Mn2  1  0.75000  0.33518  0.75000  1
 O  O1  1  0.25000  0.41595  0.75000  1
 O  O2  1  0.25000  0.85257  0.75000  1
 O  O3  1  0.75000  0.14743  0.25000  1
 O  O4  1  0.75000  0.58405  0.25000  1
