CIF file written using JARVIS-Tools package.
data_YbSiIr
_symmetry_space_group_name_H-M  'Pnma'
_cell_length_a       4.30343
_cell_length_b       6.91226
_cell_length_c       7.16526
_cell_angle_alpha    90
_cell_angle_beta     90
_cell_angle_gamma    90

_symmetry_Int_Tables_number  62
_chemical_formula_structural  YbSiIr
_chemical_formula_sum  Yb4Si4Ir4
_cell_volume  213.1408611065915
_cell_formula_units_Z  4
loop_
  _symmetry_equiv_pos_site_id
 _symmetry_equiv_pos_as_xyz
 1  'x, y, z'
loop_
 _atom_site_type_symbol
 _atom_site_label
 _atom_site_symmetry_multiplicity
 _atom_site_fract_x
 _atom_site_fract_y
 _atom_site_fract_z
 _atom_site_fract_occupancy
 Ir  Ir1  1  0.75000  0.92463  0.15160  1
 Ir  Ir2  1  0.75000  0.57537  0.65160  1
 Ir  Ir3  1  0.25000  0.42463  0.34840  1
 Ir  Ir4  1  0.25000  0.07537  0.84840  1
 Si  Si1  1  0.75000  0.60994  0.31108  1
 Si  Si2  1  0.75000  0.89006  0.81108  1
 Si  Si3  1  0.25000  0.39006  0.68892  1
 Si  Si4  1  0.25000  0.10994  0.18892  1
 Yb  Yb1  1  0.25000  0.82657  0.50798  1
 Yb  Yb2  1  0.75000  0.32657  0.99202  1
 Yb  Yb3  1  0.25000  0.67343  0.00798  1
 Yb  Yb4  1  0.75000  0.17343  0.49202  1
