CIF file written using JARVIS-Tools package.
data_PrLu3
_symmetry_space_group_name_H-M  'P6_3/mmc'
_cell_length_a       7.09506
_cell_length_b       7.09506
_cell_length_c       5.56448
_cell_angle_alpha    90
_cell_angle_beta     90
_cell_angle_gamma    120

_symmetry_Int_Tables_number  194
_chemical_formula_structural  PrLu3
_chemical_formula_sum  Pr2Lu6
_cell_volume  242.58662260568298
_cell_formula_units_Z  2
loop_
  _symmetry_equiv_pos_site_id
 _symmetry_equiv_pos_as_xyz
 1  'x, y, z'
loop_
 _atom_site_type_symbol
 _atom_site_label
 _atom_site_symmetry_multiplicity
 _atom_site_fract_x
 _atom_site_fract_y
 _atom_site_fract_z
 _atom_site_fract_occupancy
 Lu  Lu1  1  0.67244  0.83622  0.25000  1
 Lu  Lu2  1  0.16378  0.83622  0.25000  1
 Lu  Lu3  1  0.16378  0.32756  0.25000  1
 Lu  Lu4  1  0.32756  0.16378  0.75000  1
 Lu  Lu5  1  0.83622  0.16378  0.75000  1
 Lu  Lu6  1  0.83622  0.67244  0.75000  1
 Pr  Pr1  1  0.33333  0.66667  0.75000  1
 Pr  Pr2  1  0.66667  0.33333  0.25000  1
