CIF file written using JARVIS-Tools package.
data_LiMnPO4
_symmetry_space_group_name_H-M  'Pna2_1'
_cell_length_a       5.04318
_cell_length_b       6.06833
_cell_length_c       11.3453
_cell_angle_alpha    90
_cell_angle_beta     90
_cell_angle_gamma    90

_symmetry_Int_Tables_number  33
_chemical_formula_structural  LiMnPO4
_chemical_formula_sum  Li4Mn4P4O6
_cell_volume  347.20738270671677
_cell_formula_units_Z  4
loop_
  _symmetry_equiv_pos_site_id
 _symmetry_equiv_pos_as_xyz
 1  'x, y, z'
loop_
 _atom_site_type_symbol
 _atom_site_label
 _atom_site_symmetry_multiplicity
 _atom_site_fract_x
 _atom_site_fract_y
 _atom_site_fract_z
 _atom_site_fract_occupancy
 Li  Li1  1  0.75301  0.47253  0.17629  1
 Li  Li2  1  0.25301  0.97253  0.32371  1
 Li  Li3  1  0.75301  0.02747  0.67629  1
 Li  Li4  1  0.25301  0.52747  0.82371  1
 Mn  Mn1  1  0.25936  0.22578  0.07811  1
 Mn  Mn2  1  0.75936  0.72578  0.42189  1
 Mn  Mn3  1  0.25936  0.27422  0.57811  1
 Mn  Mn4  1  0.75936  0.77422  0.92189  1
 O  O1  1  0.86043  0.17937  0.10965  1
 O  O2  1  0.86795  0.95059  0.29661  1
 O  O3  1  0.94282  0.48809  0.32283  1
 O  O4  1  0.82227  0.76021  0.09730  1
 O  O5  1  0.36795  0.45059  0.20339  1
 O  O6  1  0.36043  0.82063  0.89035  1
 O  O7  1  0.32227  0.26021  0.40270  1
 O  O8  1  0.44282  -0.01191  0.17717  1
 O  O9  1  0.82227  0.73979  0.59730  1
 O  O10  1  0.94282  0.01191  0.82283  1
 O  O11  1  0.36795  0.04941  0.70339  1
 O  O12  1  0.44282  0.51191  0.67717  1
 O  O13  1  0.36043  0.67937  0.39035  1
 O  O14  1  0.86795  0.54941  0.79661  1
 O  O15  1  0.86043  0.32063  0.60965  1
 O  O16  1  0.32227  0.23979  0.90270  1
 P  P1  1  0.74830  0.96888  0.17122  1
 P  P2  1  0.24830  0.46888  0.32878  1
 P  P3  1  0.74830  0.53112  0.67122  1
 P  P4  1  0.24830  0.03112  0.82878  1
