CIF file written using JARVIS-Tools package.
data_TiH8N2F6
_symmetry_space_group_name_H-M  'P-3m1'
_cell_length_a       5.74579
_cell_length_b       5.74552
_cell_length_c       5.00389
_cell_angle_alpha    89.9988
_cell_angle_beta     89.9916
_cell_angle_gamma    119.998

_symmetry_Int_Tables_number  164
_chemical_formula_structural  TiH8N2F6
_chemical_formula_sum  TiH8N2F6
_cell_volume  143.0626693630036
_cell_formula_units_Z  1
loop_
  _symmetry_equiv_pos_site_id
 _symmetry_equiv_pos_as_xyz
 1  'x, y, z'
loop_
 _atom_site_type_symbol
 _atom_site_label
 _atom_site_symmetry_multiplicity
 _atom_site_fract_x
 _atom_site_fract_y
 _atom_site_fract_z
 _atom_site_fract_occupancy
 F  F1  1  0.15787  0.84226  0.78759  1
 F  F2  1  0.31536  0.15767  0.21259  1
 F  F3  1  0.84214  0.68440  0.21242  1
 F  F4  1  0.84213  0.15774  0.21241  1
 F  F5  1  0.15786  0.31560  0.78759  1
 F  F6  1  0.68464  0.84233  0.78741  1
 H  H1  1  0.13736  0.56868  0.25225  1
 H  H2  1  0.66728  0.33364  0.47301  1
 H  H3  1  0.43155  0.56867  0.25296  1
 H  H4  1  0.86264  0.43133  0.74775  1
 H  H5  1  0.33272  0.66636  0.52699  1
 H  H6  1  0.56845  0.43132  0.74704  1
 H  H7  1  0.56846  0.13712  0.74705  1
 H  H8  1  0.43154  0.86288  0.25295  1
 N  N1  1  0.33330  0.66665  0.32042  1
 N  N2  1  0.66670  0.33335  0.67958  1
 Ti  Ti1  1  -0.00000  -0.00000  -0.00000  1
