CIF file written using JARVIS-Tools package.
data_TeMoS
_symmetry_space_group_name_H-M  'Pnma'
_cell_length_a       3.37097
_cell_length_b       14.0499
_cell_length_c       5.76822
_cell_angle_alpha    90.0006
_cell_angle_beta     89.9998
_cell_angle_gamma    89.9997

_symmetry_Int_Tables_number  62
_chemical_formula_structural  TeMoS
_chemical_formula_sum  Te4Mo4S4
_cell_volume  273.19276783600145
_cell_formula_units_Z  4
loop_
  _symmetry_equiv_pos_site_id
 _symmetry_equiv_pos_as_xyz
 1  'x, y, z'
loop_
 _atom_site_type_symbol
 _atom_site_label
 _atom_site_symmetry_multiplicity
 _atom_site_fract_x
 _atom_site_fract_y
 _atom_site_fract_z
 _atom_site_fract_occupancy
 Mo  Mo1  1  -0.00001  0.24949  0.26719  1
 Mo  Mo2  1  0.50001  0.75051  0.23281  1
 Mo  Mo3  1  0.49999  0.25051  0.76720  1
 Mo  Mo4  1  0.00001  0.74949  0.73279  1
 S  S1  1  0.00001  0.64696  0.39908  1
 S  S2  1  0.49999  0.35303  0.10092  1
 S  S3  1  -0.00001  0.14696  0.60090  1
 S  S4  1  0.50001  0.85304  0.89910  1
 Te  Te1  1  0.50000  0.11083  0.09932  1
 Te  Te2  1  -0.00000  0.88917  0.40068  1
 Te  Te3  1  0.50000  0.61084  0.90065  1
 Te  Te4  1  -0.00000  0.38916  0.59935  1
