CIF file written using JARVIS-Tools package.
data_MgRh5
_symmetry_space_group_name_H-M  'Cm'
_cell_length_a       2.75253
_cell_length_b       5.12294
_cell_length_c       6.56847
_cell_angle_alpha    75.9889
_cell_angle_beta     90
_cell_angle_gamma    105.584

_symmetry_Int_Tables_number  8
_chemical_formula_structural  MgRh5
_chemical_formula_sum  MgRh5
_cell_volume  86.35310141081422
_cell_formula_units_Z  1
loop_
  _symmetry_equiv_pos_site_id
 _symmetry_equiv_pos_as_xyz
 1  'x, y, z'
loop_
 _atom_site_type_symbol
 _atom_site_label
 _atom_site_symmetry_multiplicity
 _atom_site_fract_x
 _atom_site_fract_y
 _atom_site_fract_z
 _atom_site_fract_occupancy
 Mg  Mg1  1  0.38589  0.77178  0.72138  1
 Rh  Rh1  1  0.00488  0.00976  0.00321  1
 Rh  Rh2  1  0.72548  0.45096  0.05376  1
 Rh  Rh3  1  0.33268  0.66535  0.33110  1
 Rh  Rh4  1  0.05755  0.11509  0.38701  1
 Rh  Rh5  1  0.66019  0.32038  0.67021  1
