CIF file written using JARVIS-Tools package.
data_TaSe2
_symmetry_space_group_name_H-M  'P6_3/mmc'
_cell_length_a       3.49097
_cell_length_b       3.49096
_cell_length_c       25.3744
_cell_angle_alpha    90
_cell_angle_beta     90
_cell_angle_gamma    120

_symmetry_Int_Tables_number  194
_chemical_formula_structural  TaSe2
_chemical_formula_sum  Ta4Se8
_cell_volume  267.80410674114444
_cell_formula_units_Z  4
loop_
  _symmetry_equiv_pos_site_id
 _symmetry_equiv_pos_as_xyz
 1  'x, y, z'
loop_
 _atom_site_type_symbol
 _atom_site_label
 _atom_site_symmetry_multiplicity
 _atom_site_fract_x
 _atom_site_fract_y
 _atom_site_fract_z
 _atom_site_fract_occupancy
 Se  Se1  1  0.33333  0.66667  0.06533  1
 Se  Se2  1  0.66667  0.33333  0.56533  1
 Se  Se3  1  0.66667  0.33333  0.93467  1
 Se  Se4  1  0.33333  0.66667  0.43467  1
 Se  Se5  1  0.33333  0.66667  0.68426  1
 Se  Se6  1  0.66667  0.33333  0.18426  1
 Se  Se7  1  0.66667  0.33333  0.31574  1
 Se  Se8  1  0.33333  0.66667  0.81574  1
 Ta  Ta1  1  0.00000  0.00000  0.00000  1
 Ta  Ta2  1  0.00000  0.00000  0.50000  1
 Ta  Ta3  1  0.00000  0.00000  0.25000  1
 Ta  Ta4  1  0.00000  0.00000  0.75000  1
