CIF file written using JARVIS-Tools package.
data_AlBr4
_symmetry_space_group_name_H-M  'Fm-3c'
_cell_length_a       12.409
_cell_length_b       12.409
_cell_length_c       12.409
_cell_angle_alpha    60
_cell_angle_beta     60
_cell_angle_gamma    60

_symmetry_Int_Tables_number  226
_chemical_formula_structural  AlBr4
_chemical_formula_sum  Al6Br24
_cell_volume  1351.1293991213045
_cell_formula_units_Z  6
loop_
  _symmetry_equiv_pos_site_id
 _symmetry_equiv_pos_as_xyz
 1  'x, y, z'
loop_
 _atom_site_type_symbol
 _atom_site_label
 _atom_site_symmetry_multiplicity
 _atom_site_fract_x
 _atom_site_fract_y
 _atom_site_fract_z
 _atom_site_fract_occupancy
 Al  Al1  1  0.25000  0.25000  0.75000  1
 Al  Al2  1  0.75000  0.25000  0.75000  1
 Al  Al3  1  0.75000  0.75000  0.25000  1
 Al  Al4  1  0.25000  0.75000  0.75000  1
 Al  Al5  1  0.25000  0.75000  0.25000  1
 Al  Al6  1  0.75000  0.25000  0.25000  1
 Br  Br1  1  0.56702  0.43298  0.78676  1
 Br  Br2  1  0.78676  0.43298  0.21324  1
 Br  Br3  1  0.28676  0.71324  0.93298  1
 Br  Br4  1  0.06702  0.93298  0.71324  1
 Br  Br5  1  0.93298  0.28676  0.71324  1
 Br  Br6  1  0.06702  0.28676  0.93298  1
 Br  Br7  1  0.71324  0.93298  0.28676  1
 Br  Br8  1  0.93298  0.71324  0.06702  1
 Br  Br9  1  0.93298  0.06702  0.28676  1
 Br  Br10  1  0.28676  0.93298  0.06702  1
 Br  Br11  1  0.71324  0.06702  0.93298  1
 Br  Br12  1  0.56702  0.78676  0.21324  1
 Br  Br13  1  0.21324  0.56702  0.78676  1
 Br  Br14  1  0.21324  0.78676  0.43298  1
 Br  Br15  1  0.43298  0.56702  0.21324  1
 Br  Br16  1  0.06702  0.71324  0.28676  1
 Br  Br17  1  0.43298  0.78676  0.56702  1
 Br  Br18  1  0.21324  0.43298  0.56702  1
 Br  Br19  1  0.71324  0.28676  0.06702  1
 Br  Br20  1  0.78676  0.56702  0.43298  1
 Br  Br21  1  0.78676  0.21324  0.56702  1
 Br  Br22  1  0.28676  0.06702  0.71324  1
 Br  Br23  1  0.43298  0.21324  0.78676  1
 Br  Br24  1  0.56702  0.21324  0.43298  1
