CIF file written using JARVIS-Tools package.
data_LiAgO2
_symmetry_space_group_name_H-M  'C2/m'
_cell_length_a       2.96922
_cell_length_b       3.26376
_cell_length_c       5.2916
_cell_angle_alpha    80.7602
_cell_angle_beta     73.7065
_cell_angle_gamma    62.9431

_symmetry_Int_Tables_number  12
_chemical_formula_structural  LiAgO2
_chemical_formula_sum  LiAgO2
_cell_volume  43.80085766466078
_cell_formula_units_Z  1
loop_
  _symmetry_equiv_pos_site_id
 _symmetry_equiv_pos_as_xyz
 1  'x, y, z'
loop_
 _atom_site_type_symbol
 _atom_site_label
 _atom_site_symmetry_multiplicity
 _atom_site_fract_x
 _atom_site_fract_y
 _atom_site_fract_z
 _atom_site_fract_occupancy
 Ag  Ag1  1  0.50000  -0.00000  -0.00000  1
 Li  Li1  1  0.50000  0.50000  0.50000  1
 O  O1  1  0.89925  0.92992  0.27157  1
 O  O2  1  0.10075  0.07008  0.72843  1
