CIF file written using JARVIS-Tools package.
data_ZrTe3
_symmetry_space_group_name_H-M  'P2_1/m'
_cell_length_a       5.97301
_cell_length_b       3.94427
_cell_length_c       10.2743
_cell_angle_alpha    90
_cell_angle_beta     97.4675
_cell_angle_gamma    90

_symmetry_Int_Tables_number  11
_chemical_formula_structural  ZrTe3
_chemical_formula_sum  Zr2Te6
_cell_volume  240.00183995931755
_cell_formula_units_Z  2
loop_
  _symmetry_equiv_pos_site_id
 _symmetry_equiv_pos_as_xyz
 1  'x, y, z'
loop_
 _atom_site_type_symbol
 _atom_site_label
 _atom_site_symmetry_multiplicity
 _atom_site_fract_x
 _atom_site_fract_y
 _atom_site_fract_z
 _atom_site_fract_occupancy
 Te  Te1  1  0.56631  0.25000  0.83081  1
 Te  Te2  1  0.23696  0.25000  0.44584  1
 Te  Te3  1  0.43369  0.75000  0.16919  1
 Te  Te4  1  0.91242  0.75000  0.16402  1
 Te  Te5  1  0.08758  0.25000  0.83598  1
 Te  Te6  1  0.76304  0.75000  0.55416  1
 Zr  Zr1  1  0.28737  0.75000  0.66711  1
 Zr  Zr2  1  0.71263  0.25000  0.33289  1
