CIF file written using JARVIS-Tools package.
data_RbTi5Se8
_symmetry_space_group_name_H-M  'C2/m'
_cell_length_a       3.61529
_cell_length_b       9.2043
_cell_length_c       9.62345
_cell_angle_alpha    104.107
_cell_angle_beta     100.827
_cell_angle_gamma    90

_symmetry_Int_Tables_number  12
_chemical_formula_structural  RbTi5Se8
_chemical_formula_sum  RbTi5Se8
_cell_volume  304.69322113374284
_cell_formula_units_Z  1
loop_
  _symmetry_equiv_pos_site_id
 _symmetry_equiv_pos_as_xyz
 1  'x, y, z'
loop_
 _atom_site_type_symbol
 _atom_site_label
 _atom_site_symmetry_multiplicity
 _atom_site_fract_x
 _atom_site_fract_y
 _atom_site_fract_z
 _atom_site_fract_occupancy
 Rb  Rb1  1  0.50000  0.50000  0.00000  1
 Se  Se1  1  0.57367  0.17452  0.14733  1
 Se  Se2  1  0.08790  0.82286  0.17580  1
 Se  Se3  1  0.16174  0.49956  0.32348  1
 Se  Se4  1  0.24292  0.16530  0.48585  1
 Se  Se5  1  0.75708  0.83470  0.51415  1
 Se  Se6  1  0.83826  0.50044  0.67652  1
 Se  Se7  1  0.91210  0.17714  0.82420  1
 Se  Se8  1  0.42633  0.82548  0.85266  1
 Ti  Ti1  1  0.00000  0.00000  0.00000  1
 Ti  Ti2  1  0.65650  -0.00138  0.31301  1
 Ti  Ti3  1  0.70792  0.34839  0.41584  1
 Ti  Ti4  1  0.29208  0.65161  0.58416  1
 Ti  Ti5  1  0.34350  0.00138  0.68699  1
