CIF file written using JARVIS-Tools package.
data_MgC2N2
_symmetry_space_group_name_H-M  'P4_2nm'
_cell_length_a       6.18469
_cell_length_b       6.21559
_cell_length_c       6.21559
_cell_angle_alpha    90
_cell_angle_beta     90
_cell_angle_gamma    90

_symmetry_Int_Tables_number  102
_chemical_formula_structural  MgC2N2
_chemical_formula_sum  Mg2C4N4
_cell_volume  238.93665371188612
_cell_formula_units_Z  2
loop_
  _symmetry_equiv_pos_site_id
 _symmetry_equiv_pos_as_xyz
 1  'x, y, z'
loop_
 _atom_site_type_symbol
 _atom_site_label
 _atom_site_symmetry_multiplicity
 _atom_site_fract_x
 _atom_site_fract_y
 _atom_site_fract_z
 _atom_site_fract_occupancy
 C  C1  1  0.44695  0.04765  0.04765  1
 C  C2  1  0.44695  0.45235  0.45235  1
 C  C3  1  0.94695  0.54765  0.95235  1
 C  C4  1  0.94695  0.95235  0.54765  1
 Mg  Mg1  1  0.24594  0.25000  0.25000  1
 Mg  Mg2  1  0.74594  0.75000  0.75000  1
 N  N1  1  0.05509  0.06088  0.43912  1
 N  N2  1  0.05509  0.43912  0.06088  1
 N  N3  1  0.55509  0.56088  0.56088  1
 N  N4  1  0.55509  0.93912  0.93912  1
