CIF file written using JARVIS-Tools package.
data_Sm3Tm
_symmetry_space_group_name_H-M  'P6_3/mmc'
_cell_length_a       7.18832
_cell_length_b       7.18832
_cell_length_c       5.71634
_cell_angle_alpha    90
_cell_angle_beta     90
_cell_angle_gamma    120

_symmetry_Int_Tables_number  194
_chemical_formula_structural  Sm3Tm
_chemical_formula_sum  Sm6Tm2
_cell_volume  255.80220395897132
_cell_formula_units_Z  2
loop_
  _symmetry_equiv_pos_site_id
 _symmetry_equiv_pos_as_xyz
 1  'x, y, z'
loop_
 _atom_site_type_symbol
 _atom_site_label
 _atom_site_symmetry_multiplicity
 _atom_site_fract_x
 _atom_site_fract_y
 _atom_site_fract_z
 _atom_site_fract_occupancy
 Sm  Sm1  1  0.66513  0.83257  0.75000  1
 Sm  Sm2  1  0.16743  0.33487  0.75000  1
 Sm  Sm3  1  0.16743  0.83257  0.75000  1
 Sm  Sm4  1  0.33487  0.16743  0.25000  1
 Sm  Sm5  1  0.83257  0.66513  0.25000  1
 Sm  Sm6  1  0.83257  0.16743  0.25000  1
 Tm  Tm1  1  0.33333  0.66667  0.25000  1
 Tm  Tm2  1  0.66667  0.33333  0.75000  1
