CIF file written using JARVIS-Tools package.
data_AgBrO2
_symmetry_space_group_name_H-M  'P2_1/m'
_cell_length_a       4.22311
_cell_length_b       3.70774
_cell_length_c       9.5333
_cell_angle_alpha    90
_cell_angle_beta     100.79
_cell_angle_gamma    90

_symmetry_Int_Tables_number  11
_chemical_formula_structural  AgBrO2
_chemical_formula_sum  Ag2Br2O4
_cell_volume  146.6351263806139
_cell_formula_units_Z  2
loop_
  _symmetry_equiv_pos_site_id
 _symmetry_equiv_pos_as_xyz
 1  'x, y, z'
loop_
 _atom_site_type_symbol
 _atom_site_label
 _atom_site_symmetry_multiplicity
 _atom_site_fract_x
 _atom_site_fract_y
 _atom_site_fract_z
 _atom_site_fract_occupancy
 Ag  Ag1  1  0.81487  0.75000  0.14457  1
 Ag  Ag2  1  0.18513  0.25000  0.85543  1
 Br  Br1  1  0.67875  0.75000  0.83928  1
 Br  Br2  1  0.32125  0.25000  0.16072  1
 O  O1  1  0.19755  0.75000  0.47665  1
 O  O2  1  0.08401  0.25000  0.59222  1
 O  O3  1  0.91599  0.75000  0.40778  1
 O  O4  1  0.80245  0.25000  0.52335  1
