CIF file written using JARVIS-Tools package.
data_LiAgO2
_symmetry_space_group_name_H-M  'P2/m'
_cell_length_a       5.20537
_cell_length_b       3.10544
_cell_length_c       6.0122
_cell_angle_alpha    90
_cell_angle_beta     91.3859
_cell_angle_gamma    90

_symmetry_Int_Tables_number  10
_chemical_formula_structural  LiAgO2
_chemical_formula_sum  Li2Ag2O4
_cell_volume  97.15846218921006
_cell_formula_units_Z  2
loop_
  _symmetry_equiv_pos_site_id
 _symmetry_equiv_pos_as_xyz
 1  'x, y, z'
loop_
 _atom_site_type_symbol
 _atom_site_label
 _atom_site_symmetry_multiplicity
 _atom_site_fract_x
 _atom_site_fract_y
 _atom_site_fract_z
 _atom_site_fract_occupancy
 Ag  Ag1  1  0.50000  0.50000  -0.00000  1
 Ag  Ag2  1  0.50000  0.50000  0.50000  1
 Li  Li1  1  0.97351  0.00000  0.76895  1
 Li  Li2  1  0.02649  0.00000  0.23105  1
 O  O1  1  0.90401  0.50000  0.59035  1
 O  O2  1  0.25238  0.00000  0.97842  1
 O  O3  1  0.74762  0.00000  0.02158  1
 O  O4  1  0.09599  0.50000  0.40965  1
