CIF file written using JARVIS-Tools package.
data_Si3MoPt2
_symmetry_space_group_name_H-M  'Pmc2_1'
_cell_length_a       3.52422
_cell_length_b       5.5603
_cell_length_c       9.28829
_cell_angle_alpha    90
_cell_angle_beta     90
_cell_angle_gamma    90

_symmetry_Int_Tables_number  26
_chemical_formula_structural  Si3MoPt2
_chemical_formula_sum  Si6Mo2Pt4
_cell_volume  182.01087937272607
_cell_formula_units_Z  2
loop_
  _symmetry_equiv_pos_site_id
 _symmetry_equiv_pos_as_xyz
 1  'x, y, z'
loop_
 _atom_site_type_symbol
 _atom_site_label
 _atom_site_symmetry_multiplicity
 _atom_site_fract_x
 _atom_site_fract_y
 _atom_site_fract_z
 _atom_site_fract_occupancy
 Mo  Mo1  1  0.00000  -0.00112  0.60528  1
 Mo  Mo2  1  0.00000  0.49888  0.39472  1
 Pt  Pt1  1  0.00000  -0.00115  0.28580  1
 Pt  Pt2  1  0.50000  0.00313  0.02920  1
 Pt  Pt3  1  0.00000  0.49885  0.71420  1
 Pt  Pt4  1  0.50000  0.50313  0.97080  1
 Si  Si1  1  0.50000  0.82645  0.43499  1
 Si  Si2  1  0.50000  0.81428  0.77732  1
 Si  Si3  1  0.00000  0.65712  0.12649  1
 Si  Si4  1  0.50000  0.32645  0.56501  1
 Si  Si5  1  0.50000  0.31428  0.22268  1
 Si  Si6  1  0.00000  0.15712  0.87351  1
