CIF file written using JARVIS-Tools package.
data_Li2VFeP2O8
_symmetry_space_group_name_H-M  'P2_1/m'
_cell_length_a       4.69581
_cell_length_b       5.98275
_cell_length_c       10.3297
_cell_angle_alpha    90
_cell_angle_beta     89.9588
_cell_angle_gamma    90

_symmetry_Int_Tables_number  11
_chemical_formula_structural  Li2VFeP2O8
_chemical_formula_sum  Li4V2Fe2P4O6
_cell_volume  290.20179411487106
_cell_formula_units_Z  2
loop_
  _symmetry_equiv_pos_site_id
 _symmetry_equiv_pos_as_xyz
 1  'x, y, z'
loop_
 _atom_site_type_symbol
 _atom_site_label
 _atom_site_symmetry_multiplicity
 _atom_site_fract_x
 _atom_site_fract_y
 _atom_site_fract_z
 _atom_site_fract_occupancy
 Fe  Fe1  1  0.02516  0.75000  0.27685  1
 Fe  Fe2  1  0.97484  0.25000  0.72315  1
 Li  Li1  1  0.00000  0.00000  0.00000  1
 Li  Li2  1  0.00000  0.50000  0.00000  1
 Li  Li3  1  0.50000  0.00000  0.50000  1
 Li  Li4  1  0.50000  0.50000  0.50000  1
 O  O1  1  0.28900  0.25000  0.04767  1
 O  O2  1  0.74914  0.25000  0.91227  1
 O  O3  1  0.70781  0.95768  0.16184  1
 O  O4  1  0.70781  0.54232  0.16184  1
 O  O5  1  0.22288  0.45341  0.33112  1
 O  O6  1  0.22288  0.04659  0.33112  1
 O  O7  1  0.25086  0.75000  0.08773  1
 O  O8  1  0.79476  0.75000  0.45745  1
 O  O9  1  0.20524  0.25000  0.54255  1
 O  O10  1  0.24413  0.75000  0.59961  1
 O  O11  1  0.29219  0.45768  0.83816  1
 O  O12  1  0.77712  0.54659  0.66888  1
 O  O13  1  0.75587  0.25000  0.40039  1
 O  O14  1  0.29219  0.04232  0.83816  1
 O  O15  1  0.77712  0.95341  0.66888  1
 O  O16  1  0.71100  0.75000  0.95233  1
 P  P1  1  0.57606  0.75000  0.09043  1
 P  P2  1  0.08276  0.25000  0.40402  1
 P  P3  1  0.91724  0.75000  0.59598  1
 P  P4  1  0.42394  0.25000  0.90957  1
 V  V1  1  0.48448  0.75000  0.77823  1
 V  V2  1  0.51552  0.25000  0.22177  1
