CIF file written using JARVIS-Tools package.
data_ReSe2
_symmetry_space_group_name_H-M  'P-1'
_cell_length_a       6.67794
_cell_length_b       6.79929
_cell_length_c       6.85586
_cell_angle_alpha    91.8911
_cell_angle_beta     104.912
_cell_angle_gamma    118.872

_symmetry_Int_Tables_number  2
_chemical_formula_structural  ReSe2
_chemical_formula_sum  Re4Se8
_cell_volume  258.8305495654093
_cell_formula_units_Z  4
loop_
  _symmetry_equiv_pos_site_id
 _symmetry_equiv_pos_as_xyz
 1  'x, y, z'
loop_
 _atom_site_type_symbol
 _atom_site_label
 _atom_site_symmetry_multiplicity
 _atom_site_fract_x
 _atom_site_fract_y
 _atom_site_fract_z
 _atom_site_fract_occupancy
 Re  Re1  1  0.06396  0.31549  0.49176  1
 Re  Re2  1  0.93604  0.68451  0.50824  1
 Re  Re3  1  0.48699  0.29087  0.49707  1
 Re  Re4  1  0.51301  0.70913  0.50293  1
 Se  Se1  1  0.24764  0.38139  0.20821  1
 Se  Se2  1  0.75236  0.61861  0.79179  1
 Se  Se3  1  0.72073  0.33890  0.24126  1
 Se  Se4  1  0.27927  0.66110  0.75874  1
 Se  Se5  1  0.22625  0.10956  0.72178  1
 Se  Se6  1  0.77375  0.89044  0.27822  1
 Se  Se7  1  0.75462  0.13645  0.69491  1
 Se  Se8  1  0.24538  0.86355  0.30509  1
