CIF file written using JARVIS-Tools package.
data_CrSbO4
_symmetry_space_group_name_H-M  'Imma'
_cell_length_a       6.30087
_cell_length_b       6.08578
_cell_length_c       6.08578
_cell_angle_alpha    58.2125
_cell_angle_beta     58.8238
_cell_angle_gamma    58.8237

_symmetry_Int_Tables_number  74
_chemical_formula_structural  CrSbO4
_chemical_formula_sum  Cr2Sb2O8
_cell_volume  159.79486316572192
_cell_formula_units_Z  2
loop_
  _symmetry_equiv_pos_site_id
 _symmetry_equiv_pos_as_xyz
 1  'x, y, z'
loop_
 _atom_site_type_symbol
 _atom_site_label
 _atom_site_symmetry_multiplicity
 _atom_site_fract_x
 _atom_site_fract_y
 _atom_site_fract_z
 _atom_site_fract_occupancy
 Cr  Cr1  1  0.50000  -0.00000  0.50000  1
 Cr  Cr2  1  0.50000  0.50000  -0.00000  1
 O  O1  1  0.27277  0.26681  0.26681  1
 O  O2  1  0.26354  0.25810  0.71481  1
 O  O3  1  0.26354  0.71481  0.25810  1
 O  O4  1  0.69360  0.26681  0.26681  1
 O  O5  1  0.30640  0.73319  0.73319  1
 O  O6  1  0.73646  0.74190  0.28519  1
 O  O7  1  0.73646  0.28519  0.74190  1
 O  O8  1  0.72723  0.73319  0.73319  1
 Sb  Sb1  1  -0.00000  0.50000  0.50000  1
 Sb  Sb2  1  0.50000  0.50000  0.50000  1
