CIF file written using JARVIS-Tools package.
data_Li3Al2CrO6
_symmetry_space_group_name_H-M  'C2/m'
_cell_length_a       4.95079
_cell_length_b       4.95079
_cell_length_c       5.03116
_cell_angle_alpha    80.5504
_cell_angle_beta     99.4496
_cell_angle_gamma    59.9927

_symmetry_Int_Tables_number  12
_chemical_formula_structural  Li3Al2CrO6
_chemical_formula_sum  Li3Al2CrO6
_cell_volume  100.86417672665581
_cell_formula_units_Z  1
loop_
  _symmetry_equiv_pos_site_id
 _symmetry_equiv_pos_as_xyz
 1  'x, y, z'
loop_
 _atom_site_type_symbol
 _atom_site_label
 _atom_site_symmetry_multiplicity
 _atom_site_fract_x
 _atom_site_fract_y
 _atom_site_fract_z
 _atom_site_fract_occupancy
 Al  Al1  1  0.33322  0.33322  -0.00000  1
 Al  Al2  1  0.66678  0.66678  -0.00000  1
 Cr  Cr1  1  0.00000  0.00000  0.00000  1
 Li  Li1  1  0.16579  0.16579  0.50000  1
 Li  Li2  1  0.50000  0.50000  0.50000  1
 Li  Li3  1  0.83421  0.83421  0.50000  1
 O  O1  1  0.27093  0.72907  0.77985  1
 O  O2  1  0.41745  0.92672  0.21902  1
 O  O3  1  0.07328  0.58255  0.21902  1
 O  O4  1  0.92672  0.41745  0.78098  1
 O  O5  1  0.58255  0.07328  0.78098  1
 O  O6  1  0.72907  0.27093  0.22015  1
