CIF file written using JARVIS-Tools package.
data_UB4H16
_symmetry_space_group_name_H-M  'Cmcm'
_cell_length_a       5.55619
_cell_length_b       5.55619
_cell_length_c       11.6317
_cell_angle_alpha    90
_cell_angle_beta     90
_cell_angle_gamma    91.0999

_symmetry_Int_Tables_number  63
_chemical_formula_structural  UB4H16
_chemical_formula_sum  U2B8H32
_cell_volume  359.0208591407896
_cell_formula_units_Z  2
loop_
  _symmetry_equiv_pos_site_id
 _symmetry_equiv_pos_as_xyz
 1  'x, y, z'
loop_
 _atom_site_type_symbol
 _atom_site_label
 _atom_site_symmetry_multiplicity
 _atom_site_fract_x
 _atom_site_fract_y
 _atom_site_fract_z
 _atom_site_fract_occupancy
 B  B1  1  0.38233  0.80999  0.25000  1
 B  B2  1  0.19001  0.61767  0.75000  1
 B  B3  1  0.61767  0.19001  0.75000  1
 B  B4  1  0.80999  0.38233  0.25000  1
 B  B5  1  0.23439  0.23439  0.03894  1
 B  B6  1  0.76561  0.76561  0.96106  1
 B  B7  1  0.23439  0.23439  0.46106  1
 B  B8  1  0.76561  0.76561  0.53894  1
 H  H1  1  0.10663  0.10663  0.10335  1
 H  H2  1  0.60577  0.31141  0.66188  1
 H  H3  1  0.31141  0.60577  0.83812  1
 H  H4  1  0.80169  0.80169  0.43889  1
 H  H5  1  0.31141  0.60577  0.66188  1
 H  H6  1  0.39423  0.68859  0.33812  1
 H  H7  1  0.90911  0.18425  0.25000  1
 H  H8  1  0.44963  0.04078  0.75000  1
 H  H9  1  0.09089  0.81575  0.75000  1
 H  H10  1  0.18425  0.90911  0.25000  1
 H  H11  1  0.95922  0.55037  0.25000  1
 H  H12  1  0.68859  0.39423  0.33812  1
 H  H13  1  0.04078  0.44963  0.75000  1
 H  H14  1  0.55037  0.95922  0.25000  1
 H  H15  1  0.81575  0.09089  0.75000  1
 H  H16  1  0.39423  0.68859  0.16188  1
 H  H17  1  0.19831  0.19831  0.56111  1
 H  H18  1  0.80768  0.55524  0.57040  1
 H  H19  1  0.89337  0.89337  0.89665  1
 H  H20  1  0.10663  0.10663  0.39665  1
 H  H21  1  0.89337  0.89337  0.60335  1
 H  H22  1  0.44476  0.19232  0.07040  1
 H  H23  1  0.80768  0.55524  0.92960  1
 H  H24  1  0.68859  0.39423  0.16188  1
 H  H25  1  0.44476  0.19232  0.42960  1
 H  H26  1  0.55524  0.80768  0.92960  1
 H  H27  1  0.19232  0.44476  0.07040  1
 H  H28  1  0.55524  0.80768  0.57040  1
 H  H29  1  0.60577  0.31141  0.83812  1
 H  H30  1  0.80169  0.80169  0.06111  1
 H  H31  1  0.19831  0.19831  0.93889  1
 H  H32  1  0.19232  0.44476  0.42960  1
 U  U1  1  0.69518  0.69518  0.75000  1
 U  U2  1  0.30482  0.30482  0.25000  1
