CIF file written using JARVIS-Tools package.
data_V2O5
_symmetry_space_group_name_H-M  'Pmmn'
_cell_length_a       11.7358
_cell_length_b       8.58136
_cell_length_c       3.56398
_cell_angle_alpha    90
_cell_angle_beta     90
_cell_angle_gamma    90

_symmetry_Int_Tables_number  59
_chemical_formula_structural  V2O5
_chemical_formula_sum  V8O20
_cell_volume  358.925067644797
_cell_formula_units_Z  4
loop_
  _symmetry_equiv_pos_site_id
 _symmetry_equiv_pos_as_xyz
 1  'x, y, z'
loop_
 _atom_site_type_symbol
 _atom_site_label
 _atom_site_symmetry_multiplicity
 _atom_site_fract_x
 _atom_site_fract_y
 _atom_site_fract_z
 _atom_site_fract_occupancy
 O  O1  1  0.85391  0.75694  0.60003  1
 O  O2  1  0.00000  0.49628  0.59993  1
 O  O3  1  0.14609  0.25694  0.59997  1
 O  O4  1  0.14609  0.75694  0.60003  1
 O  O5  1  0.18181  0.99794  0.10005  1
 O  O6  1  0.18181  0.49794  0.09995  1
 O  O7  1  0.31819  0.00206  0.60005  1
 O  O8  1  0.31819  0.50206  0.59995  1
 O  O9  1  0.35391  0.74306  0.09997  1
 O  O10  1  0.35391  0.24306  0.10003  1
 O  O11  1  0.50000  0.50372  0.09993  1
 O  O12  1  0.50000  0.00372  0.10007  1
 O  O13  1  0.00000  0.99628  0.60007  1
 O  O14  1  0.64609  0.74306  0.09997  1
 O  O15  1  0.68181  0.00206  0.60005  1
 O  O16  1  0.81819  0.99794  0.10005  1
 O  O17  1  0.81819  0.49794  0.09995  1
 O  O18  1  0.85391  0.25694  0.59997  1
 O  O19  1  0.68181  0.50206  0.59995  1
 O  O20  1  0.64609  0.24306  0.10003  1
 V  V1  1  0.85217  0.44463  0.59996  1
 V  V2  1  0.14784  0.44463  0.59996  1
 V  V3  1  0.14784  0.94463  0.60005  1
 V  V4  1  0.35216  0.05537  0.10005  1
 V  V5  1  0.35216  0.55537  0.09996  1
 V  V6  1  0.64784  0.05537  0.10005  1
 V  V7  1  0.64784  0.55537  0.09996  1
 V  V8  1  0.85216  0.94463  0.60005  1
