CIF file written using JARVIS-Tools package.
data_Li2MnOF3
_symmetry_space_group_name_H-M  'Cm'
_cell_length_a       5.66168
_cell_length_b       5.66168
_cell_length_c       5.82043
_cell_angle_alpha    61.9346
_cell_angle_beta     83.6168
_cell_angle_gamma    113.705

_symmetry_Int_Tables_number  8
_chemical_formula_structural  Li2MnOF3
_chemical_formula_sum  Li4Mn2O2F6
_cell_volume  139.94093138133695
_cell_formula_units_Z  2
loop_
  _symmetry_equiv_pos_site_id
 _symmetry_equiv_pos_as_xyz
 1  'x, y, z'
loop_
 _atom_site_type_symbol
 _atom_site_label
 _atom_site_symmetry_multiplicity
 _atom_site_fract_x
 _atom_site_fract_y
 _atom_site_fract_z
 _atom_site_fract_occupancy
 F  F1  1  0.79135  0.03123  0.67742  1
 F  F2  1  0.81300  0.46084  0.22616  1
 F  F3  1  0.71223  0.44236  0.76249  1
 F  F4  1  0.29515  0.02528  0.76249  1
 F  F5  1  0.21066  0.99963  0.28971  1
 F  F6  1  0.22476  0.52130  0.75394  1
 Li  Li1  1  0.48176  0.99177  0.49688  1
 Li  Li2  1  0.48384  0.49378  0.52238  1
 Li  Li3  1  0.89724  0.74977  0.85299  1
 Li  Li4  1  0.01135  0.52136  0.49688  1
 Mn  Mn1  1  0.51466  0.98093  0.00441  1
 Mn  Mn2  1  0.04407  0.27399  0.18195  1
 O  O1  1  0.71447  0.95840  0.23616  1
 O  O2  1  0.30544  0.54937  0.23616  1
