CIF file written using JARVIS-Tools package.
data_MgW3
_symmetry_space_group_name_H-M  'P6_3/mmc'
_cell_length_a       5.77489
_cell_length_b       5.77489
_cell_length_c       4.66513
_cell_angle_alpha    90
_cell_angle_beta     90
_cell_angle_gamma    120

_symmetry_Int_Tables_number  194
_chemical_formula_structural  MgW3
_chemical_formula_sum  Mg2W6
_cell_volume  134.73539687303798
_cell_formula_units_Z  2
loop_
  _symmetry_equiv_pos_site_id
 _symmetry_equiv_pos_as_xyz
 1  'x, y, z'
loop_
 _atom_site_type_symbol
 _atom_site_label
 _atom_site_symmetry_multiplicity
 _atom_site_fract_x
 _atom_site_fract_y
 _atom_site_fract_z
 _atom_site_fract_occupancy
 Mg  Mg1  1  0.33333  0.66667  0.75000  1
 Mg  Mg2  1  0.66667  0.33333  0.25000  1
 W  W1  1  0.84573  0.69146  0.75000  1
 W  W2  1  0.30854  0.15427  0.75000  1
 W  W3  1  0.84573  0.15427  0.75000  1
 W  W4  1  0.15427  0.84573  0.25000  1
 W  W5  1  0.69146  0.84573  0.25000  1
 W  W6  1  0.15427  0.30854  0.25000  1
