CIF file written using JARVIS-Tools package.
data_Co3TeO8
_symmetry_space_group_name_H-M  'P6_3mc'
_cell_length_a       5.6572
_cell_length_b       5.65719
_cell_length_c       9.08076
_cell_angle_alpha    89.9957
_cell_angle_beta     90.0021
_cell_angle_gamma    120

_symmetry_Int_Tables_number  186
_chemical_formula_structural  Co3TeO8
_chemical_formula_sum  Co6Te2O6
_cell_volume  251.6836338311087
_cell_formula_units_Z  2
loop_
  _symmetry_equiv_pos_site_id
 _symmetry_equiv_pos_as_xyz
 1  'x, y, z'
loop_
 _atom_site_type_symbol
 _atom_site_label
 _atom_site_symmetry_multiplicity
 _atom_site_fract_x
 _atom_site_fract_y
 _atom_site_fract_z
 _atom_site_fract_occupancy
 Co  Co1  1  0.16974  0.83026  0.21600  1
 Co  Co2  1  0.16975  0.33950  0.21602  1
 Co  Co3  1  0.66050  0.83025  0.21601  1
 Co  Co4  1  0.33950  0.16975  0.71601  1
 Co  Co5  1  0.83026  0.66052  0.71600  1
 Co  Co6  1  0.83025  0.16975  0.71602  1
 O  O1  1  0.15780  0.84223  0.59655  1
 O  O2  1  0.02908  0.51454  0.33512  1
 O  O3  1  0.33333  0.66668  0.11089  1
 O  O4  1  0.97092  0.48546  0.83512  1
 O  O5  1  0.00000  0.99999  0.80909  1
 O  O6  1  0.15779  0.31560  0.59657  1
 O  O7  1  1.00000  0.99999  0.30909  1
 O  O8  1  0.48546  0.51454  0.33513  1
 O  O9  1  0.51454  0.48546  0.83511  1
 O  O10  1  0.68442  0.84224  0.59655  1
 O  O11  1  0.48546  0.97092  0.33511  1
 O  O12  1  0.51454  0.02908  0.83513  1
 O  O13  1  0.66667  0.33335  0.61089  1
 O  O14  1  0.84220  0.68443  0.09655  1
 O  O15  1  0.31558  0.15782  0.09655  1
 O  O16  1  0.84221  0.15781  0.09657  1
 Te  Te1  1  0.66667  0.33335  0.99484  1
 Te  Te2  1  0.33333  0.66668  0.49484  1
