CIF file written using JARVIS-Tools package.
data_Li3MnV3O8
_symmetry_space_group_name_H-M  'Cm'
_cell_length_a       3.99798
_cell_length_b       6.30254
_cell_length_c       6.55807
_cell_angle_alpha    105.957
_cell_angle_beta     90.0011
_cell_angle_gamma    108.493

_symmetry_Int_Tables_number  8
_chemical_formula_structural  Li3MnV3O8
_chemical_formula_sum  Li3MnV3O8
_cell_volume  149.9845632043843
_cell_formula_units_Z  1
loop_
  _symmetry_equiv_pos_site_id
 _symmetry_equiv_pos_as_xyz
 1  'x, y, z'
loop_
 _atom_site_type_symbol
 _atom_site_label
 _atom_site_symmetry_multiplicity
 _atom_site_fract_x
 _atom_site_fract_y
 _atom_site_fract_z
 _atom_site_fract_occupancy
 Li  Li1  1  0.93720  0.87439  0.63833  1
 Li  Li2  1  0.83115  0.66231  0.99527  1
 Li  Li3  1  0.06155  0.12309  0.36365  1
 Mn  Mn1  1  0.28193  0.56386  0.69589  1
 O  O1  1  0.35736  0.71472  0.01502  1
 O  O2  1  0.87998  0.75997  0.31131  1
 O  O3  1  0.43839  0.87679  0.63398  1
 O  O4  1  0.77236  0.54472  0.66917  1
 O  O5  1  0.22700  0.45399  0.33275  1
 O  O6  1  0.55999  0.11998  0.36561  1
 O  O7  1  0.65467  0.30934  -0.00040  1
 O  O8  1  0.10919  0.21837  0.67548  1
 V  V1  1  0.70516  0.41032  0.28820  1
 V  V2  1  0.39011  0.78023  0.29824  1
 V  V3  1  0.60685  0.21369  0.71182  1
