CIF file written using JARVIS-Tools package.
data_PH6N3O
_symmetry_space_group_name_H-M  'P2_1/c'
_cell_length_a       8.26977
_cell_length_b       8.62119
_cell_length_c       5.37683
_cell_angle_alpha    90
_cell_angle_beta     95.1425
_cell_angle_gamma    90

_symmetry_Int_Tables_number  14
_chemical_formula_structural  PH6N3O
_chemical_formula_sum  P4H24N2O4
_cell_volume  381.7993036046133
_cell_formula_units_Z  4
loop_
  _symmetry_equiv_pos_site_id
 _symmetry_equiv_pos_as_xyz
 1  'x, y, z'
loop_
 _atom_site_type_symbol
 _atom_site_label
 _atom_site_symmetry_multiplicity
 _atom_site_fract_x
 _atom_site_fract_y
 _atom_site_fract_z
 _atom_site_fract_occupancy
 H  H1  1  0.98501  0.39450  0.68677  1
 H  H2  1  0.01499  0.89450  0.81323  1
 H  H3  1  0.58556  0.78564  0.62790  1
 H  H4  1  0.41444  0.28564  0.87210  1
 H  H5  1  0.98501  0.10550  0.18677  1
 H  H6  1  0.01499  0.60550  0.31323  1
 H  H7  1  0.09558  0.24011  0.04888  1
 H  H8  1  0.90442  0.74011  0.45112  1
 H  H9  1  0.90442  0.75989  0.95112  1
 H  H10  1  0.41444  0.21436  0.37210  1
 H  H11  1  0.58556  0.71436  0.12790  1
 H  H12  1  0.74846  0.20659  0.61651  1
 H  H13  1  0.51980  0.39751  0.67787  1
 H  H14  1  0.09558  0.25989  0.54888  1
 H  H15  1  0.48020  0.60249  0.32213  1
 H  H16  1  0.51980  0.10249  0.17787  1
 H  H17  1  0.25154  0.70659  0.88349  1
 H  H18  1  0.74846  0.29341  0.11651  1
 H  H19  1  0.25154  0.79341  0.38349  1
 H  H20  1  0.23047  0.55314  0.08005  1
 H  H21  1  0.76953  0.05314  0.41995  1
 H  H22  1  0.76953  0.44686  0.91995  1
 H  H23  1  0.23047  0.94686  0.58005  1
 H  H24  1  0.48020  0.89751  0.82213  1
 N  N1  1  0.40853  0.35150  0.71112  1
 N  N2  1  0.90160  0.84666  0.81880  1
 N  N3  1  0.59147  0.64850  0.28888  1
 N  N4  1  0.22140  0.59159  0.89814  1
 N  N5  1  0.77860  0.09159  0.60186  1
 N  N6  1  0.77860  0.40841  0.10186  1
 N  N7  1  0.59147  0.85150  0.78888  1
 N  N8  1  0.22140  0.90841  0.39814  1
 N  N9  1  0.09840  0.34666  0.68120  1
 N  N10  1  0.09840  0.15334  0.18120  1
 N  N11  1  0.40853  0.14850  0.21112  1
 N  N12  1  0.90160  0.65334  0.31880  1
 O  O1  1  0.26462  0.56291  0.43273  1
 O  O2  1  0.73538  0.43709  0.56727  1
 O  O3  1  0.26462  0.93709  0.93273  1
 O  O4  1  0.73538  0.06291  0.06727  1
 P  P1  1  0.25037  0.02918  0.17012  1
 P  P2  1  0.74963  0.52918  0.32988  1
 P  P3  1  0.74963  0.97082  0.82988  1
 P  P4  1  0.25037  0.47082  0.67012  1
