CIF file written using JARVIS-Tools package.
data_TbBa3
_symmetry_space_group_name_H-M  'P6_3/mmc'
_cell_length_a       8.27548
_cell_length_b       8.27548
_cell_length_c       6.59454
_cell_angle_alpha    90
_cell_angle_beta     90
_cell_angle_gamma    120

_symmetry_Int_Tables_number  194
_chemical_formula_structural  TbBa3
_chemical_formula_sum  Tb2Ba6
_cell_volume  391.11230547667185
_cell_formula_units_Z  2
loop_
  _symmetry_equiv_pos_site_id
 _symmetry_equiv_pos_as_xyz
 1  'x, y, z'
loop_
 _atom_site_type_symbol
 _atom_site_label
 _atom_site_symmetry_multiplicity
 _atom_site_fract_x
 _atom_site_fract_y
 _atom_site_fract_z
 _atom_site_fract_occupancy
 Ba  Ba1  1  0.17192  0.82808  0.75000  1
 Ba  Ba2  1  0.65616  0.82808  0.75000  1
 Ba  Ba3  1  0.17192  0.34384  0.75000  1
 Ba  Ba4  1  0.82808  0.17192  0.25000  1
 Ba  Ba5  1  0.34384  0.17192  0.25000  1
 Ba  Ba6  1  0.82808  0.65616  0.25000  1
 Tb  Tb1  1  0.33333  0.66667  0.25000  1
 Tb  Tb2  1  0.66667  0.33333  0.75000  1
