CIF file written using JARVIS-Tools package.
data_InTeCl
_symmetry_space_group_name_H-M  'P2_1/c'
_cell_length_a       7.17014
_cell_length_b       7.43795
_cell_length_c       14.2583
_cell_angle_alpha    90
_cell_angle_beta     90
_cell_angle_gamma    94.3793

_symmetry_Int_Tables_number  14
_chemical_formula_structural  InTeCl
_chemical_formula_sum  In8Te8Cl8
_cell_volume  758.1925385390639
_cell_formula_units_Z  8
loop_
  _symmetry_equiv_pos_site_id
 _symmetry_equiv_pos_as_xyz
 1  'x, y, z'
loop_
 _atom_site_type_symbol
 _atom_site_label
 _atom_site_symmetry_multiplicity
 _atom_site_fract_x
 _atom_site_fract_y
 _atom_site_fract_z
 _atom_site_fract_occupancy
 Cl  Cl1  1  0.76487  0.38733  0.10380  1
 Cl  Cl2  1  0.23513  0.61267  0.89620  1
 Cl  Cl3  1  0.26487  0.38733  0.39620  1
 Cl  Cl4  1  0.48098  0.06446  0.26548  1
 Cl  Cl5  1  0.01902  0.93554  0.76548  1
 Cl  Cl6  1  0.51902  0.93554  0.73452  1
 Cl  Cl7  1  0.98098  0.06446  0.23452  1
 Cl  Cl8  1  0.73513  0.61267  0.60380  1
 In  In1  1  0.12580  0.79313  0.02536  1
 In  In2  1  0.62701  0.81500  0.18711  1
 In  In3  1  0.87299  0.18500  0.68711  1
 In  In4  1  0.37299  0.18500  0.81289  1
 In  In5  1  0.12701  0.81500  0.31289  1
 In  In6  1  0.62580  0.79313  0.47464  1
 In  In7  1  0.87420  0.20687  0.97464  1
 In  In8  1  0.37420  0.20687  0.52536  1
 Te  Te1  1  0.73115  0.40590  0.82724  1
 Te  Te2  1  0.23115  0.40590  0.67276  1
 Te  Te3  1  0.76564  0.16345  0.49579  1
 Te  Te4  1  0.73436  0.83655  0.99579  1
 Te  Te5  1  0.23436  0.83655  0.50421  1
 Te  Te6  1  0.26564  0.16345  0.00421  1
 Te  Te7  1  0.76885  0.59410  0.32724  1
 Te  Te8  1  0.26885  0.59410  0.17276  1
