CIF file written using JARVIS-Tools package.
data_ZrCd2H12O6F8
_symmetry_space_group_name_H-M  'C2/c'
_cell_length_a       7.11708
_cell_length_b       13.6498
_cell_length_c       7.11708
_cell_angle_alpha    65.2755
_cell_angle_beta     108.837
_cell_angle_gamma    114.725

_symmetry_Int_Tables_number  15
_chemical_formula_structural  ZrCd2H12O6F8
_chemical_formula_sum  Zr2Cd4H24O2F6
_cell_volume  561.2045941327049
_cell_formula_units_Z  2
loop_
  _symmetry_equiv_pos_site_id
 _symmetry_equiv_pos_as_xyz
 1  'x, y, z'
loop_
 _atom_site_type_symbol
 _atom_site_label
 _atom_site_symmetry_multiplicity
 _atom_site_fract_x
 _atom_site_fract_y
 _atom_site_fract_z
 _atom_site_fract_occupancy
 Cd  Cd1  1  0.08410  0.78685  0.65784  1
 Cd  Cd2  1  0.65784  0.71315  0.08410  1
 Cd  Cd3  1  0.91590  0.21315  0.34216  1
 Cd  Cd4  1  0.34216  0.28685  0.91590  1
 F  F1  1  0.49357  0.08018  0.64661  1
 F  F2  1  0.24811  0.28789  0.54331  1
 F  F3  1  0.50643  0.91982  0.35339  1
 F  F4  1  0.35339  0.58018  0.50643  1
 F  F5  1  0.54197  0.22308  0.81176  1
 F  F6  1  0.81176  0.27692  0.54197  1
 F  F7  1  0.45803  0.77692  0.18824  1
 F  F8  1  0.18824  0.72308  0.45803  1
 F  F9  1  0.75189  0.71211  0.45669  1
 F  F10  1  0.45669  0.78789  0.75189  1
 F  F11  1  0.38485  0.35987  0.18330  1
 F  F12  1  0.18330  0.14013  0.38485  1
 F  F13  1  0.61515  0.64013  0.81670  1
 F  F14  1  0.81670  0.85987  0.61515  1
 F  F15  1  0.64661  0.41982  0.49357  1
 F  F16  1  0.54331  0.21211  0.24811  1
 H  H1  1  0.66157  0.02762  0.20053  1
 H  H2  1  0.33843  0.97238  0.79947  1
 H  H3  1  0.00022  0.90135  0.16617  1
 H  H4  1  0.20053  0.47238  0.66157  1
 H  H5  1  0.16617  0.59865  0.00022  1
 H  H6  1  0.79947  0.52762  0.33843  1
 H  H7  1  0.99757  0.35852  0.66628  1
 H  H8  1  0.03557  0.88780  0.96984  1
 H  H9  1  0.69022  0.04912  0.64317  1
 H  H10  1  0.62397  0.51940  0.81957  1
 H  H11  1  0.37603  0.48060  0.18043  1
 H  H12  1  0.96984  0.61220  0.03557  1
 H  H13  1  0.64317  0.45088  0.69022  1
 H  H14  1  -0.00022  0.09865  0.83383  1
 H  H15  1  0.18043  0.01940  0.37603  1
 H  H16  1  0.30978  0.95088  0.35683  1
 H  H17  1  0.03016  0.38780  0.96443  1
 H  H18  1  0.96443  0.11220  0.03016  1
 H  H19  1  0.00243  0.64148  0.33372  1
 H  H20  1  0.33372  0.85852  0.00243  1
 H  H21  1  0.83383  0.40135  -0.00022  1
 H  H22  1  0.66628  0.14148  0.99757  1
 H  H23  1  0.35683  0.54912  0.30978  1
 H  H24  1  0.81957  0.98060  0.62397  1
 O  O1  1  0.92381  0.87504  0.04195  1
 O  O2  1  0.24317  0.89875  0.88098  1
 O  O3  1  0.11902  0.39875  0.75683  1
 O  O4  1  0.75683  0.10125  0.11902  1
 O  O5  1  0.04195  0.62496  0.92381  1
 O  O6  1  0.07619  0.12496  0.95805  1
 O  O7  1  0.95805  0.37504  0.07619  1
 O  O8  1  0.17049  0.94481  0.37343  1
 O  O9  1  0.37343  0.55519  0.17049  1
 O  O10  1  0.82951  0.05519  0.62657  1
 O  O11  1  0.62657  0.44481  0.82951  1
 O  O12  1  0.88098  0.60125  0.24317  1
 Zr  Zr1  1  0.48403  0.25000  0.48403  1
 Zr  Zr2  1  0.51597  0.75000  0.51597  1
