CIF file written using JARVIS-Tools package.
data_SmAs2Au
_symmetry_space_group_name_H-M  'P4/nmm'
_cell_length_a       4.08918
_cell_length_b       4.08918
_cell_length_c       10.1877
_cell_angle_alpha    90
_cell_angle_beta     90
_cell_angle_gamma    90

_symmetry_Int_Tables_number  129
_chemical_formula_structural  SmAs2Au
_chemical_formula_sum  Sm2As4Au2
_cell_volume  170.35203495271156
_cell_formula_units_Z  2
loop_
  _symmetry_equiv_pos_site_id
 _symmetry_equiv_pos_as_xyz
 1  'x, y, z'
loop_
 _atom_site_type_symbol
 _atom_site_label
 _atom_site_symmetry_multiplicity
 _atom_site_fract_x
 _atom_site_fract_y
 _atom_site_fract_z
 _atom_site_fract_occupancy
 As  As1  1  0.50000  0.50000  0.00000  1
 As  As2  1  0.00000  0.00000  0.00000  1
 As  As3  1  0.00000  0.50000  0.30975  1
 As  As4  1  0.50000  0.00000  0.69025  1
 Au  Au1  1  0.50000  0.50000  0.50000  1
 Au  Au2  1  0.00000  0.00000  0.50000  1
 Sm  Sm1  1  0.50000  0.00000  0.23310  1
 Sm  Sm2  1  0.00000  0.50000  0.76690  1
