CIF file written using JARVIS-Tools package.
data_NdB4
_symmetry_space_group_name_H-M  'I4/mmm'
_cell_length_a       4.34585
_cell_length_b       4.34521
_cell_length_c       4.34521
_cell_angle_alpha    99.3685
_cell_angle_beta     65.2701
_cell_angle_gamma    65.2702

_symmetry_Int_Tables_number  139
_chemical_formula_structural  NdB4
_chemical_formula_sum  NdB4
_cell_volume  61.75870355479106
_cell_formula_units_Z  1
loop_
  _symmetry_equiv_pos_site_id
 _symmetry_equiv_pos_as_xyz
 1  'x, y, z'
loop_
 _atom_site_type_symbol
 _atom_site_label
 _atom_site_symmetry_multiplicity
 _atom_site_fract_x
 _atom_site_fract_y
 _atom_site_fract_z
 _atom_site_fract_occupancy
 B  B1  1  0.73867  0.50017  0.76119  1
 B  B2  1  0.26133  0.23881  0.49983  1
 B  B3  1  0.26133  0.49983  0.23881  1
 B  B4  1  0.73867  0.76119  0.50017  1
 Nd  Nd1  1  0.00000  0.00000  0.00000  1
