CIF file written using JARVIS-Tools package.
data_PrZnSbO
_symmetry_space_group_name_H-M  'P4/nmm'
_cell_length_a       4.21456
_cell_length_b       4.21456
_cell_length_c       9.59858
_cell_angle_alpha    90
_cell_angle_beta     90
_cell_angle_gamma    90

_symmetry_Int_Tables_number  129
_chemical_formula_structural  PrZnSbO
_chemical_formula_sum  Pr2Zn2Sb2O2
_cell_volume  170.4950422428207
_cell_formula_units_Z  2
loop_
  _symmetry_equiv_pos_site_id
 _symmetry_equiv_pos_as_xyz
 1  'x, y, z'
loop_
 _atom_site_type_symbol
 _atom_site_label
 _atom_site_symmetry_multiplicity
 _atom_site_fract_x
 _atom_site_fract_y
 _atom_site_fract_z
 _atom_site_fract_occupancy
 O  O1  1  0.50000  0.50000  0.00000  1
 O  O2  1  0.00000  0.00000  0.00000  1
 Pr  Pr1  1  0.00000  0.50000  0.11896  1
 Pr  Pr2  1  0.50000  0.00000  0.88104  1
 Sb  Sb1  1  0.00000  0.50000  0.68350  1
 Sb  Sb2  1  0.50000  0.00000  0.31650  1
 Zn  Zn1  1  0.50000  0.50000  0.50000  1
 Zn  Zn2  1  0.00000  0.00000  0.50000  1
