CIF file written using JARVIS-Tools package.
data_Li3CoO3
_symmetry_space_group_name_H-M  'P4_2/mnm'
_cell_length_a       8.56347
_cell_length_b       8.56347
_cell_length_c       3.65242
_cell_angle_alpha    90
_cell_angle_beta     90
_cell_angle_gamma    90

_symmetry_Int_Tables_number  136
_chemical_formula_structural  Li3CoO3
_chemical_formula_sum  Li2Co4O2
_cell_volume  267.8428735349413
_cell_formula_units_Z  4
loop_
  _symmetry_equiv_pos_site_id
 _symmetry_equiv_pos_as_xyz
 1  'x, y, z'
loop_
 _atom_site_type_symbol
 _atom_site_label
 _atom_site_symmetry_multiplicity
 _atom_site_fract_x
 _atom_site_fract_y
 _atom_site_fract_z
 _atom_site_fract_occupancy
 Co  Co1  1  0.61800  0.61800  0.00000  1
 Co  Co2  1  0.88200  0.11800  0.50000  1
 Co  Co3  1  0.38200  0.38200  0.00000  1
 Co  Co4  1  0.11800  0.88200  0.50000  1
 Li  Li1  1  0.63443  0.89474  0.50000  1
 Li  Li2  1  0.39474  0.86557  0.00000  1
 Li  Li3  1  0.83858  0.83858  0.00000  1
 Li  Li4  1  0.33858  0.66142  0.50000  1
 Li  Li5  1  0.36557  0.10526  0.50000  1
 Li  Li6  1  0.13443  0.60526  0.00000  1
 Li  Li7  1  0.86557  0.39474  0.00000  1
 Li  Li8  1  0.10526  0.36557  0.50000  1
 Li  Li9  1  0.66142  0.33858  0.50000  1
 Li  Li10  1  0.16142  0.16142  0.00000  1
 Li  Li11  1  0.60526  0.13443  0.00000  1
 Li  Li12  1  0.89474  0.63443  0.50000  1
 O  O1  1  0.61294  0.82872  0.00000  1
 O  O2  1  0.11294  0.67128  0.50000  1
 O  O3  1  0.82872  0.61294  0.00000  1
 O  O4  1  0.39950  0.60050  0.00000  1
 O  O5  1  0.60050  0.39950  0.00000  1
 O  O6  1  0.38706  0.17128  0.00000  1
 O  O7  1  0.88706  0.32872  0.50000  1
 O  O8  1  0.67128  0.11294  0.50000  1
 O  O9  1  0.10050  0.10050  0.50000  1
 O  O10  1  0.32872  0.88706  0.50000  1
 O  O11  1  0.17128  0.38706  0.00000  1
 O  O12  1  0.89950  0.89950  0.50000  1
