CIF file written using JARVIS-Tools package.
data_MgS2O7
_symmetry_space_group_name_H-M  'P-1'
_cell_length_a       4.91266
_cell_length_b       7.01118
_cell_length_c       8.1953
_cell_angle_alpha    92.6388
_cell_angle_beta     94.4796
_cell_angle_gamma    107.232

_symmetry_Int_Tables_number  2
_chemical_formula_structural  MgS2O7
_chemical_formula_sum  Mg2S4O4
_cell_volume  268.071741076783
_cell_formula_units_Z  2
loop_
  _symmetry_equiv_pos_site_id
 _symmetry_equiv_pos_as_xyz
 1  'x, y, z'
loop_
 _atom_site_type_symbol
 _atom_site_label
 _atom_site_symmetry_multiplicity
 _atom_site_fract_x
 _atom_site_fract_y
 _atom_site_fract_z
 _atom_site_fract_occupancy
 Mg  Mg1  1  0.00000  0.50000  -0.00000  1
 Mg  Mg2  1  0.50000  0.00000  0.50000  1
 O  O1  1  0.75581  0.57189  0.81054  1
 O  O2  1  0.24419  0.42811  0.18946  1
 O  O3  1  0.36433  0.67844  0.90810  1
 O  O4  1  0.04688  0.27082  0.84939  1
 O  O5  1  0.59912  0.82247  0.67281  1
 O  O6  1  0.63567  0.32156  0.09190  1
 O  O7  1  0.29357  0.48503  0.63888  1
 O  O8  1  0.70643  0.51497  0.36112  1
 O  O9  1  0.90448  0.19504  0.55520  1
 O  O10  1  0.09552  0.80496  0.44480  1
 O  O11  1  0.34555  0.14849  0.67854  1
 O  O12  1  0.65445  0.85151  0.32146  1
 O  O13  1  0.40088  0.17753  0.32719  1
 O  O14  1  0.95312  0.72918  0.15061  1
 S  S1  1  0.86584  0.74590  0.31426  1
 S  S2  1  0.13416  0.25410  0.68574  1
 S  S3  1  0.47817  0.34736  0.22938  1
 S  S4  1  0.52183  0.65264  0.77062  1
