CIF file written using JARVIS-Tools package.
data_Tl3BiCl6
_symmetry_space_group_name_H-M  'P4_2/m'
_cell_length_a       8.96952
_cell_length_b       8.96952
_cell_length_c       7.44197
_cell_angle_alpha    90
_cell_angle_beta     90
_cell_angle_gamma    90

_symmetry_Int_Tables_number  84
_chemical_formula_structural  Tl3BiCl6
_chemical_formula_sum  Tl6Bi2Cl2
_cell_volume  598.7234507054023
_cell_formula_units_Z  2
loop_
  _symmetry_equiv_pos_site_id
 _symmetry_equiv_pos_as_xyz
 1  'x, y, z'
loop_
 _atom_site_type_symbol
 _atom_site_label
 _atom_site_symmetry_multiplicity
 _atom_site_fract_x
 _atom_site_fract_y
 _atom_site_fract_z
 _atom_site_fract_occupancy
 Bi  Bi1  1  0.00000  0.50000  0.00000  1
 Bi  Bi2  1  0.50000  0.00000  0.50000  1
 Cl  Cl1  1  0.20242  0.06529  0.50000  1
 Cl  Cl2  1  0.56596  0.20577  0.24242  1
 Cl  Cl3  1  0.06529  0.79758  0.00000  1
 Cl  Cl4  1  0.20577  0.43404  0.74242  1
 Cl  Cl5  1  0.79423  0.56596  0.74242  1
 Cl  Cl6  1  0.43404  0.79423  0.24242  1
 Cl  Cl7  1  0.56596  0.20577  0.75758  1
 Cl  Cl8  1  0.79423  0.56596  0.25758  1
 Cl  Cl9  1  0.93471  0.20242  0.00000  1
 Cl  Cl10  1  0.43404  0.79423  0.75758  1
 Cl  Cl11  1  0.79758  0.93471  0.50000  1
 Cl  Cl12  1  0.20577  0.43404  0.25758  1
 Tl  Tl1  1  0.91783  0.26641  0.50000  1
 Tl  Tl2  1  0.08217  0.73359  0.50000  1
 Tl  Tl3  1  0.73359  0.91783  0.00000  1
 Tl  Tl4  1  0.26641  0.08217  0.00000  1
 Tl  Tl5  1  0.50000  0.50000  0.50000  1
 Tl  Tl6  1  0.50000  0.50000  0.00000  1
