CIF file written using JARVIS-Tools package.
data_FeAuO2
_symmetry_space_group_name_H-M  'R-3m'
_cell_length_a       2.88326
_cell_length_b       2.88325
_cell_length_c       6.4872
_cell_angle_alpha    77.1602
_cell_angle_beta     77.1602
_cell_angle_gamma    60.0001

_symmetry_Int_Tables_number  166
_chemical_formula_structural  FeAuO2
_chemical_formula_sum  FeAuO2
_cell_volume  45.140058307116405
_cell_formula_units_Z  1
loop_
  _symmetry_equiv_pos_site_id
 _symmetry_equiv_pos_as_xyz
 1  'x, y, z'
loop_
 _atom_site_type_symbol
 _atom_site_label
 _atom_site_symmetry_multiplicity
 _atom_site_fract_x
 _atom_site_fract_y
 _atom_site_fract_z
 _atom_site_fract_occupancy
 Au  Au1  1  0.50000  0.50000  0.50000  1
 Fe  Fe1  1  0.00000  0.00000  0.00000  1
 O  O1  1  0.38577  0.38577  0.84269  1
 O  O2  1  0.61423  0.61423  0.15731  1
