CIF file written using JARVIS-Tools package.
data_TlHCO2
_symmetry_space_group_name_H-M  'Pnna'
_cell_length_a       5.75713
_cell_length_b       6.70363
_cell_length_c       8.02175
_cell_angle_alpha    90
_cell_angle_beta     90
_cell_angle_gamma    90

_symmetry_Int_Tables_number  52
_chemical_formula_structural  TlHCO2
_chemical_formula_sum  Tl4H4C4O8
_cell_volume  309.5890510001562
_cell_formula_units_Z  4
loop_
  _symmetry_equiv_pos_site_id
 _symmetry_equiv_pos_as_xyz
 1  'x, y, z'
loop_
 _atom_site_type_symbol
 _atom_site_label
 _atom_site_symmetry_multiplicity
 _atom_site_fract_x
 _atom_site_fract_y
 _atom_site_fract_z
 _atom_site_fract_occupancy
 C  C1  1  0.25000  0.32801  0.75000  1
 C  C2  1  0.75000  0.67199  0.25000  1
 C  C3  1  0.75000  0.82801  0.75000  1
 C  C4  1  0.25000  0.17199  0.25000  1
 H  H1  1  0.75000  0.83813  0.25000  1
 H  H2  1  0.25000  0.16187  0.75000  1
 H  H3  1  0.75000  0.66187  0.75000  1
 H  H4  1  0.25000  0.33813  0.25000  1
 O  O1  1  0.08740  0.41629  0.67266  1
 O  O2  1  0.08740  0.08371  0.32734  1
 O  O3  1  0.58740  0.91629  0.82734  1
 O  O4  1  0.41260  0.08371  0.17266  1
 O  O5  1  0.41260  0.41629  0.82734  1
 O  O6  1  0.91260  0.91629  0.67266  1
 O  O7  1  0.58740  0.58371  0.17266  1
 O  O8  1  0.91260  0.58371  0.32734  1
 Tl  Tl1  1  0.25349  0.75000  0.00000  1
 Tl  Tl2  1  0.74651  0.25000  0.00000  1
 Tl  Tl3  1  0.24651  0.75000  0.50000  1
 Tl  Tl4  1  0.75349  0.25000  0.50000  1
