CIF file written using JARVIS-Tools package.
data_AgBrO2
_symmetry_space_group_name_H-M  'C2/c'
_cell_length_a       3.6431
_cell_length_b       4.60903
_cell_length_c       10.039
_cell_angle_alpha    76.7291
_cell_angle_beta     89.8903
_cell_angle_gamma    89.5224

_symmetry_Int_Tables_number  15
_chemical_formula_structural  AgBrO2
_chemical_formula_sum  Ag2Br2O4
_cell_volume  164.0593123329646
_cell_formula_units_Z  2
loop_
  _symmetry_equiv_pos_site_id
 _symmetry_equiv_pos_as_xyz
 1  'x, y, z'
loop_
 _atom_site_type_symbol
 _atom_site_label
 _atom_site_symmetry_multiplicity
 _atom_site_fract_x
 _atom_site_fract_y
 _atom_site_fract_z
 _atom_site_fract_occupancy
 Ag  Ag1  1  -0.00000  0.50000  0.50000  1
 Ag  Ag2  1  0.50000  0.00000  0.50000  1
 Br  Br1  1  0.25000  0.64532  0.70936  1
 Br  Br2  1  0.75000  0.35468  0.29064  1
 O  O1  1  0.75140  0.89981  0.93254  1
 O  O2  1  0.24860  0.10019  0.06746  1
 O  O3  1  0.74860  0.16764  0.93254  1
 O  O4  1  0.25140  0.83236  0.06746  1
