CIF file written using JARVIS-Tools package.
data_MgU
_symmetry_space_group_name_H-M  'Pmma'
_cell_length_a       2.82626
_cell_length_b       4.85279
_cell_length_c       6.1748
_cell_angle_alpha    90
_cell_angle_beta     90
_cell_angle_gamma    90

_symmetry_Int_Tables_number  51
_chemical_formula_structural  MgU
_chemical_formula_sum  Mg2U2
_cell_volume  84.68897313959428
_cell_formula_units_Z  2
loop_
  _symmetry_equiv_pos_site_id
 _symmetry_equiv_pos_as_xyz
 1  'x, y, z'
loop_
 _atom_site_type_symbol
 _atom_site_label
 _atom_site_symmetry_multiplicity
 _atom_site_fract_x
 _atom_site_fract_y
 _atom_site_fract_z
 _atom_site_fract_occupancy
 Mg  Mg1  1  0.00000  0.75000  0.11847  1
 Mg  Mg2  1  0.00000  0.25000  0.88153  1
 U  U1  1  0.50000  0.25000  0.40924  1
 U  U2  1  0.50000  0.75000  0.59076  1
