CIF file written using JARVIS-Tools package.
data_Rb2Fe4O7
_symmetry_space_group_name_H-M  'P-31m'
_cell_length_a       5.08219
_cell_length_b       5.08216
_cell_length_c       6.76627
_cell_angle_alpha    89.9998
_cell_angle_beta     90.0005
_cell_angle_gamma    119.999

_symmetry_Int_Tables_number  162
_chemical_formula_structural  Rb2Fe4O7
_chemical_formula_sum  Rb2Fe4O7
_cell_volume  151.35116194635683
_cell_formula_units_Z  1
loop_
  _symmetry_equiv_pos_site_id
 _symmetry_equiv_pos_as_xyz
 1  'x, y, z'
loop_
 _atom_site_type_symbol
 _atom_site_label
 _atom_site_symmetry_multiplicity
 _atom_site_fract_x
 _atom_site_fract_y
 _atom_site_fract_z
 _atom_site_fract_occupancy
 Fe  Fe1  1  -0.00000  0.99998  0.27125  1
 Fe  Fe2  1  0.00000  0.99999  0.72875  1
 Fe  Fe3  1  0.33333  0.66665  0.50000  1
 Fe  Fe4  1  0.66667  0.33332  0.50000  1
 O  O1  1  0.00000  0.65263  0.34732  1
 O  O2  1  -0.00000  0.34734  0.65268  1
 O  O3  1  -0.00000  0.99998  0.00000  1
 O  O4  1  0.34736  0.34735  0.34732  1
 O  O5  1  0.65264  0.65262  0.65268  1
 O  O6  1  0.34736  0.99998  0.65268  1
 O  O7  1  0.65264  0.99999  0.34732  1
 Rb  Rb1  1  0.33333  0.66665  1.00000  1
 Rb  Rb2  1  0.66667  0.33331  1.00000  1
