CIF file written using JARVIS-Tools package.
data_Li6Mn5CoO12
_symmetry_space_group_name_H-M  'P-1'
_cell_length_a       5.04826
_cell_length_b       5.04956
_cell_length_c       10.3154
_cell_angle_alpha    87.1199
_cell_angle_beta     100.522
_cell_angle_gamma    115.27

_symmetry_Int_Tables_number  2
_chemical_formula_structural  Li6Mn5CoO12
_chemical_formula_sum  Li6Mn5CoO2
_cell_volume  233.67757226908876
_cell_formula_units_Z  1
loop_
  _symmetry_equiv_pos_site_id
 _symmetry_equiv_pos_as_xyz
 1  'x, y, z'
loop_
 _atom_site_type_symbol
 _atom_site_label
 _atom_site_symmetry_multiplicity
 _atom_site_fract_x
 _atom_site_fract_y
 _atom_site_fract_z
 _atom_site_fract_occupancy
 Co  Co1  1  0.00000  0.00000  0.00000  1
 Li  Li1  1  0.94354  0.34696  0.78038  1
 Li  Li2  1  0.37309  0.30116  0.21364  1
 Li  Li3  1  0.71816  0.97604  0.21445  1
 Li  Li4  1  0.62691  0.69884  0.78636  1
 Li  Li5  1  0.05646  0.65304  0.21962  1
 Li  Li6  1  0.28184  0.02396  0.78555  1
 Mn  Mn1  1  0.66934  0.33288  0.00019  1
 Mn  Mn2  1  0.83145  0.66840  0.50001  1
 Mn  Mn3  1  0.50000  -0.00000  0.50000  1
 Mn  Mn4  1  0.33066  0.66712  0.99981  1
 Mn  Mn5  1  0.16855  0.33160  0.49999  1
 O  O1  1  0.24062  0.03740  0.60400  1
 O  O2  1  0.57255  0.70661  0.60415  1
 O  O3  1  0.33955  0.37951  0.88312  1
 O  O4  1  0.66045  0.62049  0.11688  1
 O  O5  1  0.42745  0.29339  0.39585  1
 O  O6  1  0.99665  0.29652  0.11686  1
 O  O7  1  0.66638  0.04287  0.88444  1
 O  O8  1  0.86397  0.33278  0.59291  1
 O  O9  1  0.75938  0.96260  0.39600  1
 O  O10  1  0.13603  0.66722  0.40709  1
 O  O11  1  0.33362  0.95713  0.11556  1
 O  O12  1  0.00335  0.70348  0.88314  1
