CIF file written using JARVIS-Tools package.
data_YbB4Ru
_symmetry_space_group_name_H-M  'Pbam'
_cell_length_a       3.54272
_cell_length_b       5.92755
_cell_length_c       11.4782
_cell_angle_alpha    90
_cell_angle_beta     90
_cell_angle_gamma    90

_symmetry_Int_Tables_number  55
_chemical_formula_structural  YbB4Ru
_chemical_formula_sum  Yb4B6Ru4
_cell_volume  241.03725308509706
_cell_formula_units_Z  4
loop_
  _symmetry_equiv_pos_site_id
 _symmetry_equiv_pos_as_xyz
 1  'x, y, z'
loop_
 _atom_site_type_symbol
 _atom_site_label
 _atom_site_symmetry_multiplicity
 _atom_site_fract_x
 _atom_site_fract_y
 _atom_site_fract_z
 _atom_site_fract_occupancy
 B  B1  1  0.50000  0.36470  0.46917  1
 B  B2  1  0.50000  0.28677  0.31491  1
 B  B3  1  0.50000  0.71323  0.68509  1
 B  B4  1  0.50000  0.78677  0.18509  1
 B  B5  1  0.50000  0.21323  0.81491  1
 B  B6  1  0.50000  0.52442  0.80784  1
 B  B7  1  0.50000  0.63530  0.53083  1
 B  B8  1  0.50000  0.86470  0.03083  1
 B  B9  1  0.50000  0.13530  0.96917  1
 B  B10  1  0.50000  0.38724  0.04720  1
 B  B11  1  0.50000  0.61276  0.95280  1
 B  B12  1  0.50000  0.88724  0.45280  1
 B  B13  1  0.50000  0.11276  0.54720  1
 B  B14  1  0.50000  0.47558  0.19216  1
 B  B15  1  0.50000  0.02442  0.69216  1
 B  B16  1  0.50000  0.97558  0.30784  1
 Ru  Ru1  1  0.00000  0.13546  0.41225  1
 Ru  Ru2  1  0.00000  0.86454  0.58775  1
 Ru  Ru3  1  0.00000  0.36454  0.91225  1
 Ru  Ru4  1  0.00000  0.63546  0.08775  1
 Yb  Yb1  1  0.00000  0.37047  0.65036  1
 Yb  Yb2  1  0.00000  0.62953  0.34964  1
 Yb  Yb3  1  0.00000  0.87047  0.84964  1
 Yb  Yb4  1  0.00000  0.12953  0.15036  1
