CIF file written using JARVIS-Tools package.
data_CrAuO2
_symmetry_space_group_name_H-M  'R-3m'
_cell_length_a       3.02661
_cell_length_b       3.0266
_cell_length_c       6.39174
_cell_angle_alpha    76.3047
_cell_angle_beta     76.3046
_cell_angle_gamma    60

_symmetry_Int_Tables_number  166
_chemical_formula_structural  CrAuO2
_chemical_formula_sum  CrAuO2
_cell_volume  48.774752581338404
_cell_formula_units_Z  1
loop_
  _symmetry_equiv_pos_site_id
 _symmetry_equiv_pos_as_xyz
 1  'x, y, z'
loop_
 _atom_site_type_symbol
 _atom_site_label
 _atom_site_symmetry_multiplicity
 _atom_site_fract_x
 _atom_site_fract_y
 _atom_site_fract_z
 _atom_site_fract_occupancy
 Au  Au1  1  0.00000  0.00000  0.00000  1
 Cr  Cr1  1  0.50000  0.50000  0.50000  1
 O  O1  1  0.88650  0.88650  0.34050  1
 O  O2  1  0.11350  0.11350  0.65950  1
