CIF file written using JARVIS-Tools package.
data_MnO2
_symmetry_space_group_name_H-M  'P-3m1'
_cell_length_a       2.79129
_cell_length_b       2.79129
_cell_length_c       8.89108
_cell_angle_alpha    90.0012
_cell_angle_beta     89.9991
_cell_angle_gamma    120

_symmetry_Int_Tables_number  164
_chemical_formula_structural  MnO2
_chemical_formula_sum  Mn2O4
_cell_volume  59.99208073473545
_cell_formula_units_Z  2
loop_
  _symmetry_equiv_pos_site_id
 _symmetry_equiv_pos_as_xyz
 1  'x, y, z'
loop_
 _atom_site_type_symbol
 _atom_site_label
 _atom_site_symmetry_multiplicity
 _atom_site_fract_x
 _atom_site_fract_y
 _atom_site_fract_z
 _atom_site_fract_occupancy
 Mn  Mn1  1  0.99996  0.99999  0.00001  1
 Mn  Mn2  1  0.99997  0.00001  0.49999  1
 O  O1  1  0.66664  0.33334  0.38888  1
 O  O2  1  0.66663  0.33331  0.88889  1
 O  O3  1  0.33329  0.66666  0.11113  1
 O  O4  1  0.33330  0.66668  0.61110  1
