CIF file written using JARVIS-Tools package.
data_RbBaSiHO4
_symmetry_space_group_name_H-M  'P2_1'
_cell_length_a       5.94094
_cell_length_b       8.17552
_cell_length_c       6.01495
_cell_angle_alpha    90
_cell_angle_beta     118.04
_cell_angle_gamma    90

_symmetry_Int_Tables_number  4
_chemical_formula_structural  RbBaSiHO4
_chemical_formula_sum  Rb2Ba2Si2H2O8
_cell_volume  257.8564598931622
_cell_formula_units_Z  2
loop_
  _symmetry_equiv_pos_site_id
 _symmetry_equiv_pos_as_xyz
 1  'x, y, z'
loop_
 _atom_site_type_symbol
 _atom_site_label
 _atom_site_symmetry_multiplicity
 _atom_site_fract_x
 _atom_site_fract_y
 _atom_site_fract_z
 _atom_site_fract_occupancy
 Ba  Ba1  1  0.01347  0.48441  0.00491  1
 Ba  Ba2  1  0.98653  0.98441  0.99509  1
 H  H1  1  0.51329  0.00945  0.45475  1
 H  H2  1  0.48671  0.50945  0.54525  1
 O  O1  1  0.84446  0.24120  0.20892  1
 O  O2  1  0.15554  0.74120  0.79108  1
 O  O3  1  0.88591  0.23626  0.68170  1
 O  O4  1  0.11409  0.73626  0.31830  1
 O  O5  1  0.49301  0.39937  0.30968  1
 O  O6  1  0.50699  0.89937  0.69032  1
 O  O7  1  0.50779  0.07113  0.30525  1
 O  O8  1  0.49221  0.57113  0.69475  1
 Rb  Rb1  1  0.36554  0.22926  0.71168  1
 Rb  Rb2  1  0.63446  0.72926  0.28832  1
 Si  Si1  1  0.69481  0.24593  0.37765  1
 Si  Si2  1  0.30519  0.74593  0.62235  1
