CIF file written using JARVIS-Tools package.
data_Mn5CoO12
_symmetry_space_group_name_H-M  'C2/m'
_cell_length_a       4.97017
_cell_length_b       4.97043
_cell_length_c       8.9974
_cell_angle_alpha    95.2122
_cell_angle_beta     100.469
_cell_angle_gamma    60.0019

_symmetry_Int_Tables_number  12
_chemical_formula_structural  Mn5CoO12
_chemical_formula_sum  Mn5CoO2
_cell_volume  189.29124824295454
_cell_formula_units_Z  1
loop_
  _symmetry_equiv_pos_site_id
 _symmetry_equiv_pos_as_xyz
 1  'x, y, z'
loop_
 _atom_site_type_symbol
 _atom_site_label
 _atom_site_symmetry_multiplicity
 _atom_site_fract_x
 _atom_site_fract_y
 _atom_site_fract_z
 _atom_site_fract_occupancy
 Co  Co1  1  0.00000  0.00000  0.00000  1
 Mn  Mn1  1  0.16666  0.66668  0.50000  1
 Mn  Mn2  1  0.66667  0.66667  -0.00000  1
 Mn  Mn3  1  0.33333  0.33333  0.00000  1
 Mn  Mn4  1  0.83334  0.33332  0.50000  1
 Mn  Mn5  1  0.50000  -0.00000  0.50000  1
 O  O1  1  0.03500  0.66917  0.10633  1
 O  O2  1  0.29583  0.66917  0.89367  1
 O  O3  1  0.63419  0.00000  0.89367  1
 O  O4  1  0.46453  0.66656  0.39186  1
 O  O5  1  0.13109  0.33344  0.39186  1
 O  O6  1  0.70417  0.33083  0.10633  1
 O  O7  1  0.86891  0.66656  0.60814  1
 O  O8  1  0.53547  0.33344  0.60814  1
 O  O9  1  0.36581  -0.00000  0.10633  1
 O  O10  1  -0.03500  0.33083  0.89367  1
 O  O11  1  0.20234  -0.00000  0.60812  1
 O  O12  1  0.79766  0.00000  0.39188  1
