CIF file written using JARVIS-Tools package.
data_TbNiB4
_symmetry_space_group_name_H-M  'I4/mmm'
_cell_length_a       6.83794
_cell_length_b       6.83794
_cell_length_c       6.83794
_cell_angle_alpha    112.85
_cell_angle_beta     112.85
_cell_angle_gamma    102.907

_symmetry_Int_Tables_number  139
_chemical_formula_structural  TbNiB4
_chemical_formula_sum  Tb4Ni4B6
_cell_volume  243.739437074714
_cell_formula_units_Z  4
loop_
  _symmetry_equiv_pos_site_id
 _symmetry_equiv_pos_as_xyz
 1  'x, y, z'
loop_
 _atom_site_type_symbol
 _atom_site_label
 _atom_site_symmetry_multiplicity
 _atom_site_fract_x
 _atom_site_fract_y
 _atom_site_fract_z
 _atom_site_fract_occupancy
 B  B1  1  0.58206  0.11235  0.00000  1
 B  B2  1  0.11138  0.27498  0.38636  1
 B  B3  1  0.88862  0.72502  0.61364  1
 B  B4  1  0.88862  0.27498  0.16360  1
 B  B5  1  0.88765  0.41794  0.00000  1
 B  B6  1  0.72502  0.88862  0.61364  1
 B  B7  1  0.27498  0.11138  0.38636  1
 B  B8  1  0.11138  0.72502  0.83640  1
 B  B9  1  0.27498  0.88862  0.16360  1
 B  B10  1  0.41794  0.41794  0.53029  1
 B  B11  1  0.88765  0.88765  0.46971  1
 B  B12  1  0.41794  0.88765  0.00000  1
 B  B13  1  0.11235  0.58206  0.00000  1
 B  B14  1  0.58206  0.58206  0.46971  1
 B  B15  1  0.11235  0.11235  0.53029  1
 B  B16  1  0.72502  0.11138  0.83640  1
 Ni  Ni1  1  0.27153  0.50000  0.77153  1
 Ni  Ni2  1  0.72847  0.50000  0.22847  1
 Ni  Ni3  1  0.50000  0.72847  0.22847  1
 Ni  Ni4  1  0.50000  0.27153  0.77153  1
 Tb  Tb1  1  0.25000  0.75000  0.50000  1
 Tb  Tb2  1  0.75000  0.25000  0.50000  1
 Tb  Tb3  1  0.79502  0.79502  0.00000  1
 Tb  Tb4  1  0.20498  0.20498  0.00000  1
