CIF file written using JARVIS-Tools package.
data_KCaSiHO4
_symmetry_space_group_name_H-M  'P2_1'
_cell_length_a       5.58119
_cell_length_b       7.47057
_cell_length_c       5.63274
_cell_angle_alpha    90
_cell_angle_beta     118.834
_cell_angle_gamma    90

_symmetry_Int_Tables_number  4
_chemical_formula_structural  KCaSiHO4
_chemical_formula_sum  K2Ca2Si2H2O8
_cell_volume  205.7384502179982
_cell_formula_units_Z  2
loop_
  _symmetry_equiv_pos_site_id
 _symmetry_equiv_pos_as_xyz
 1  'x, y, z'
loop_
 _atom_site_type_symbol
 _atom_site_label
 _atom_site_symmetry_multiplicity
 _atom_site_fract_x
 _atom_site_fract_y
 _atom_site_fract_z
 _atom_site_fract_occupancy
 Ca  Ca1  1  0.99501  0.51335  0.00602  1
 Ca  Ca2  1  0.00499  0.01335  0.99398  1
 H  H1  1  0.96388  0.99824  0.46455  1
 H  H2  1  0.03612  0.49824  0.53545  1
 K  K1  1  0.35684  0.76551  0.72127  1
 K  K2  1  0.64316  0.26551  0.27873  1
 O  O1  1  0.34480  0.76436  0.21290  1
 O  O2  1  0.65520  0.26436  0.78710  1
 O  O3  1  0.81250  0.75974  0.70395  1
 O  O4  1  0.18750  0.25974  0.29605  1
 O  O5  1  0.80461  0.58817  0.27704  1
 O  O6  1  0.19539  0.08817  0.72296  1
 O  O7  1  0.81084  0.93837  0.29140  1
 O  O8  1  0.18916  0.43837  0.70860  1
 Si  Si1  1  0.67906  0.75527  0.37235  1
 Si  Si2  1  0.32094  0.25527  0.62765  1
