CIF file written using JARVIS-Tools package.
data_TbHO2
_symmetry_space_group_name_H-M  'Pmmn'
_cell_length_a       4.48613
_cell_length_b       3.67854
_cell_length_c       5.61464
_cell_angle_alpha    89.9968
_cell_angle_beta     90
_cell_angle_gamma    90

_symmetry_Int_Tables_number  59
_chemical_formula_structural  TbHO2
_chemical_formula_sum  Tb2H2O4
_cell_volume  92.65510208112826
_cell_formula_units_Z  2
loop_
  _symmetry_equiv_pos_site_id
 _symmetry_equiv_pos_as_xyz
 1  'x, y, z'
loop_
 _atom_site_type_symbol
 _atom_site_label
 _atom_site_symmetry_multiplicity
 _atom_site_fract_x
 _atom_site_fract_y
 _atom_site_fract_z
 _atom_site_fract_occupancy
 H  H1  1  0.25000  0.75000  0.60052  1
 H  H2  1  0.75000  0.25000  0.39948  1
 O  O1  1  0.25000  0.75001  0.92090  1
 O  O2  1  0.75000  0.24999  0.07910  1
 O  O3  1  0.25000  0.74999  0.42434  1
 O  O4  1  0.75000  0.25001  0.57566  1
 Tb  Tb1  1  0.25000  0.25000  0.18695  1
 Tb  Tb2  1  0.75000  0.75000  0.81305  1
