CIF file written using JARVIS-Tools package.
data_TiAgSe2
_symmetry_space_group_name_H-M  'R3m'
_cell_length_a       3.62002
_cell_length_b       3.62002
_cell_length_c       7.74955
_cell_angle_alpha    76.4931
_cell_angle_beta     76.4931
_cell_angle_gamma    60

_symmetry_Int_Tables_number  160
_chemical_formula_structural  TiAgSe2
_chemical_formula_sum  TiAgSe2
_cell_volume  84.69000335950399
_cell_formula_units_Z  1
loop_
  _symmetry_equiv_pos_site_id
 _symmetry_equiv_pos_as_xyz
 1  'x, y, z'
loop_
 _atom_site_type_symbol
 _atom_site_label
 _atom_site_symmetry_multiplicity
 _atom_site_fract_x
 _atom_site_fract_y
 _atom_site_fract_z
 _atom_site_fract_occupancy
 Ag  Ag1  1  0.84765  0.84765  0.45705  1
 Se  Se1  1  0.73408  0.73408  0.79775  1
 Se  Se2  1  0.26365  0.26365  0.20906  1
 Ti  Ti1  1  -0.00008  -0.00008  0.00024  1
