CIF file written using JARVIS-Tools package.
data_Ba2CuCN2O2
_symmetry_space_group_name_H-M  'P4/mmm'
_cell_length_a       3.94551
_cell_length_b       3.94551
_cell_length_c       8.49684
_cell_angle_alpha    90
_cell_angle_beta     90
_cell_angle_gamma    90

_symmetry_Int_Tables_number  123
_chemical_formula_structural  Ba2CuCN2O2
_chemical_formula_sum  Ba2CuCN2O2
_cell_volume  132.27060486046602
_cell_formula_units_Z  1
loop_
  _symmetry_equiv_pos_site_id
 _symmetry_equiv_pos_as_xyz
 1  'x, y, z'
loop_
 _atom_site_type_symbol
 _atom_site_label
 _atom_site_symmetry_multiplicity
 _atom_site_fract_x
 _atom_site_fract_y
 _atom_site_fract_z
 _atom_site_fract_occupancy
 Ba  Ba1  1  0.50000  0.50000  0.72446  1
 Ba  Ba2  1  0.50000  0.50000  0.27554  1
 C  C1  1  0.00000  0.00000  0.00000  1
 Cu  Cu1  1  0.00000  0.00000  0.50000  1
 N  N1  1  0.00000  0.00000  0.85383  1
 N  N2  1  0.00000  0.00000  0.14617  1
 O  O1  1  0.00000  0.50000  0.50000  1
 O  O2  1  0.50000  0.00000  0.50000  1
