CIF file written using JARVIS-Tools package.
data_Ga2PdI8
_symmetry_space_group_name_H-M  'C2/m'
_cell_length_a       7.5799
_cell_length_b       8.0361
_cell_length_c       8.0361
_cell_angle_alpha    62.373
_cell_angle_beta     86.2015
_cell_angle_gamma    86.2014

_symmetry_Int_Tables_number  12
_chemical_formula_structural  Ga2PdI8
_chemical_formula_sum  Ga2PdI8
_cell_volume  432.38940481326654
_cell_formula_units_Z  1
loop_
  _symmetry_equiv_pos_site_id
 _symmetry_equiv_pos_as_xyz
 1  'x, y, z'
loop_
 _atom_site_type_symbol
 _atom_site_label
 _atom_site_symmetry_multiplicity
 _atom_site_fract_x
 _atom_site_fract_y
 _atom_site_fract_z
 _atom_site_fract_occupancy
 Ga  Ga1  1  0.65847  0.21119  0.21119  1
 Ga  Ga2  1  0.34153  0.78881  0.78881  1
 I  I1  1  0.14485  0.65633  0.10857  1
 I  I2  1  0.85515  0.89143  0.34367  1
 I  I3  1  0.34460  0.15800  0.15800  1
 I  I4  1  0.65540  0.84200  0.84200  1
 I  I5  1  0.14485  0.10857  0.65633  1
 I  I6  1  0.85515  0.34367  0.89143  1
 I  I7  1  0.68215  0.39286  0.39286  1
 I  I8  1  0.31785  0.60714  0.60714  1
 Pd  Pd1  1  0.00000  0.00000  0.00000  1
