CIF file written using JARVIS-Tools package.
data_MgSiO3
_symmetry_space_group_name_H-M  'P2_1/c'
_cell_length_a       5.25338
_cell_length_b       8.92421
_cell_length_c       9.86179
_cell_angle_alpha    90
_cell_angle_beta     111.897
_cell_angle_gamma    90

_symmetry_Int_Tables_number  14
_chemical_formula_structural  MgSiO3
_chemical_formula_sum  Mg8Si8O24
_cell_volume  428.9883950344992
_cell_formula_units_Z  8
loop_
  _symmetry_equiv_pos_site_id
 _symmetry_equiv_pos_as_xyz
 1  'x, y, z'
loop_
 _atom_site_type_symbol
 _atom_site_label
 _atom_site_symmetry_multiplicity
 _atom_site_fract_x
 _atom_site_fract_y
 _atom_site_fract_z
 _atom_site_fract_occupancy
 Mg  Mg1  1  0.69186  0.84320  0.27865  1
 Mg  Mg2  1  0.19186  0.65680  0.27865  1
 Mg  Mg3  1  0.34960  0.51096  0.76714  1
 Mg  Mg4  1  0.30814  0.15680  0.72135  1
 Mg  Mg5  1  0.80814  0.34320  0.72135  1
 Mg  Mg6  1  0.65040  0.48904  0.23286  1
 Mg  Mg7  1  0.15040  0.01096  0.23286  1
 Mg  Mg8  1  0.84960  0.98904  0.76714  1
 O  O1  1  0.03621  0.18529  0.38128  1
 O  O2  1  0.71062  0.16954  0.84947  1
 O  O3  1  0.96379  0.81471  0.61872  1
 O  O4  1  0.53621  0.31471  0.38128  1
 O  O5  1  0.93105  0.52746  0.65164  1
 O  O6  1  0.23418  0.05291  0.89979  1
 O  O7  1  0.06895  0.47254  0.34836  1
 O  O8  1  0.88822  0.15742  0.60911  1
 O  O9  1  0.78938  0.66954  0.15053  1
 O  O10  1  0.61030  0.26973  0.09308  1
 O  O11  1  0.73418  0.44709  0.89979  1
 O  O12  1  0.61178  0.65742  0.39089  1
 O  O13  1  0.21062  0.33046  0.84947  1
 O  O14  1  0.43105  0.97254  0.65164  1
 O  O15  1  0.56895  0.02746  0.34836  1
 O  O16  1  0.28938  0.83046  0.15053  1
 O  O17  1  0.11178  0.84258  0.39089  1
 O  O18  1  0.76582  0.94709  0.10021  1
 O  O19  1  0.38970  0.73027  0.90692  1
 O  O20  1  0.11030  0.23027  0.09308  1
 O  O21  1  0.88970  0.76973  0.90692  1
 O  O22  1  0.46379  0.68529  0.61872  1
 O  O23  1  0.38822  0.34258  0.60911  1
 O  O24  1  0.26582  0.55291  0.10021  1
 Si  Si1  1  0.70770  0.78857  0.01408  1
 Si  Si2  1  0.25728  0.33433  0.43054  1
 Si  Si3  1  0.79230  0.28857  0.98592  1
 Si  Si4  1  0.74272  0.66567  0.56946  1
 Si  Si5  1  0.20770  0.71143  0.01408  1
 Si  Si6  1  0.29230  0.21143  0.98592  1
 Si  Si7  1  0.75728  0.16567  0.43054  1
 Si  Si8  1  0.24272  0.83433  0.56946  1
