CIF file written using JARVIS-Tools package.
data_CuBiO2
_symmetry_space_group_name_H-M  'P2_1/m'
_cell_length_a       6.14064
_cell_length_b       3.62977
_cell_length_c       6.63776
_cell_angle_alpha    90
_cell_angle_beta     116.269
_cell_angle_gamma    90

_symmetry_Int_Tables_number  11
_chemical_formula_structural  CuBiO2
_chemical_formula_sum  Cu2Bi2O4
_cell_volume  132.67089756169196
_cell_formula_units_Z  2
loop_
  _symmetry_equiv_pos_site_id
 _symmetry_equiv_pos_as_xyz
 1  'x, y, z'
loop_
 _atom_site_type_symbol
 _atom_site_label
 _atom_site_symmetry_multiplicity
 _atom_site_fract_x
 _atom_site_fract_y
 _atom_site_fract_z
 _atom_site_fract_occupancy
 Bi  Bi1  1  0.42518  0.25000  0.23106  1
 Bi  Bi2  1  0.57482  0.75000  0.76894  1
 Cu  Cu1  1  0.02891  0.25000  0.66937  1
 Cu  Cu2  1  0.97109  0.75000  0.33063  1
 O  O1  1  0.36292  0.25000  0.80526  1
 O  O2  1  0.29842  0.75000  0.41194  1
 O  O3  1  0.70158  0.25000  0.58806  1
 O  O4  1  0.63708  0.75000  0.19474  1
