CIF file written using JARVIS-Tools package.
data_TiGeO3
_symmetry_space_group_name_H-M  'R-3'
_cell_length_a       7.10071
_cell_length_b       7.10071
_cell_length_c       7.10071
_cell_angle_alpha    41.5293
_cell_angle_beta     41.5293
_cell_angle_gamma    41.5293

_symmetry_Int_Tables_number  148
_chemical_formula_structural  TiGeO3
_chemical_formula_sum  Ti2Ge2O6
_cell_volume  142.22352491493345
_cell_formula_units_Z  2
loop_
  _symmetry_equiv_pos_site_id
 _symmetry_equiv_pos_as_xyz
 1  'x, y, z'
loop_
 _atom_site_type_symbol
 _atom_site_label
 _atom_site_symmetry_multiplicity
 _atom_site_fract_x
 _atom_site_fract_y
 _atom_site_fract_z
 _atom_site_fract_occupancy
 Ge  Ge1  1  0.39394  0.39394  0.39394  1
 Ge  Ge2  1  0.60606  0.60606  0.60606  1
 O  O1  1  0.10250  0.78681  0.44545  1
 O  O2  1  0.44545  0.10250  0.78681  1
 O  O3  1  0.78681  0.44545  0.10250  1
 O  O4  1  0.21319  0.55455  0.89750  1
 O  O5  1  0.55455  0.89750  0.21319  1
 O  O6  1  0.89750  0.21319  0.55455  1
 Ti  Ti1  1  0.16212  0.16212  0.16212  1
 Ti  Ti2  1  0.83788  0.83788  0.83788  1
