CIF file written using JARVIS-Tools package.
data_Bi3Rh
_symmetry_space_group_name_H-M  'Pnma'
_cell_length_a       4.33496
_cell_length_b       8.96226
_cell_length_c       11.5003
_cell_angle_alpha    90
_cell_angle_beta     90
_cell_angle_gamma    90

_symmetry_Int_Tables_number  62
_chemical_formula_structural  Bi3Rh
_chemical_formula_sum  Bi2Rh4
_cell_volume  446.7996274502115
_cell_formula_units_Z  4
loop_
  _symmetry_equiv_pos_site_id
 _symmetry_equiv_pos_as_xyz
 1  'x, y, z'
loop_
 _atom_site_type_symbol
 _atom_site_label
 _atom_site_symmetry_multiplicity
 _atom_site_fract_x
 _atom_site_fract_y
 _atom_site_fract_z
 _atom_site_fract_occupancy
 Bi  Bi1  1  0.25000  0.40114  0.59003  1
 Bi  Bi2  1  0.25000  0.80392  0.61466  1
 Bi  Bi3  1  0.75000  0.09701  0.67852  1
 Bi  Bi4  1  0.75000  0.59701  0.82148  1
 Bi  Bi5  1  0.75000  0.09886  0.09003  1
 Bi  Bi6  1  0.25000  0.40299  0.17852  1
 Bi  Bi7  1  0.25000  0.30392  0.88534  1
 Bi  Bi8  1  0.25000  0.90114  0.90997  1
 Bi  Bi9  1  0.25000  0.90299  0.32148  1
 Bi  Bi10  1  0.75000  0.69608  0.11466  1
 Bi  Bi11  1  0.75000  0.59886  0.40997  1
 Bi  Bi12  1  0.75000  0.19608  0.38534  1
 Rh  Rh1  1  0.25000  0.60228  0.97989  1
 Rh  Rh2  1  0.25000  0.10228  0.52011  1
 Rh  Rh3  1  0.75000  0.89772  0.47989  1
 Rh  Rh4  1  0.75000  0.39772  0.02011  1
