CIF file written using JARVIS-Tools package.
data_LiBeH3
_symmetry_space_group_name_H-M  'C2/c'
_cell_length_a       4.74056
_cell_length_b       5.97695
_cell_length_c       5.97696
_cell_angle_alpha    94.7769
_cell_angle_beta     104.906
_cell_angle_gamma    75.0945

_symmetry_Int_Tables_number  15
_chemical_formula_structural  LiBeH3
_chemical_formula_sum  Li4Be4H2
_cell_volume  158.12017733426373
_cell_formula_units_Z  4
loop_
  _symmetry_equiv_pos_site_id
 _symmetry_equiv_pos_as_xyz
 1  'x, y, z'
loop_
 _atom_site_type_symbol
 _atom_site_label
 _atom_site_symmetry_multiplicity
 _atom_site_fract_x
 _atom_site_fract_y
 _atom_site_fract_z
 _atom_site_fract_occupancy
 Be  Be1  1  0.26919  0.62616  0.19978  1
 Be  Be2  1  0.76919  0.80022  0.37384  1
 Be  Be3  1  0.23081  0.19978  0.62616  1
 Be  Be4  1  0.73081  0.37384  0.80022  1
 H  H1  1  0.94318  0.35695  0.65248  1
 H  H2  1  0.16097  0.79003  0.01945  1
 H  H3  1  0.65715  0.60755  0.87438  1
 H  H4  1  0.66097  0.98055  0.20997  1
 H  H5  1  0.05682  0.64305  0.34752  1
 H  H6  1  0.34285  0.39245  0.12562  1
 H  H7  1  0.15715  0.12562  0.39245  1
 H  H8  1  0.83903  0.20998  0.98055  1
 H  H9  1  0.44318  0.34752  0.64305  1
 H  H10  1  0.55682  0.65248  0.35695  1
 H  H11  1  0.33903  0.01945  0.79003  1
 H  H12  1  0.84285  0.87438  0.60755  1
 Li  Li1  1  0.75000  0.89900  0.89900  1
 Li  Li2  1  0.25000  0.71860  0.71860  1
 Li  Li3  1  0.75000  0.28140  0.28140  1
 Li  Li4  1  0.25000  0.10100  0.10100  1
