CIF file written using JARVIS-Tools package.
data_MnO2
_symmetry_space_group_name_H-M  'C2/m'
_cell_length_a       2.75235
_cell_length_b       5.19154
_cell_length_c       4.67267
_cell_angle_alpha    113.234
_cell_angle_beta     89.9965
_cell_angle_gamma    74.6408

_symmetry_Int_Tables_number  12
_chemical_formula_structural  MnO2
_chemical_formula_sum  Mn2O4
_cell_volume  58.748598618759814
_cell_formula_units_Z  2
loop_
  _symmetry_equiv_pos_site_id
 _symmetry_equiv_pos_as_xyz
 1  'x, y, z'
loop_
 _atom_site_type_symbol
 _atom_site_label
 _atom_site_symmetry_multiplicity
 _atom_site_fract_x
 _atom_site_fract_y
 _atom_site_fract_z
 _atom_site_fract_occupancy
 Mn  Mn1  1  -0.00491  0.00868  0.97121  1
 Mn  Mn2  1  0.49996  -0.00122  0.52831  1
 O  O1  1  0.12531  0.74794  0.55312  1
 O  O2  1  0.59658  0.80552  0.07610  1
 O  O3  1  0.36974  0.25953  0.94642  1
 O  O4  1  0.89847  0.20194  0.42343  1
