CIF file written using JARVIS-Tools package.
data_LiTi2O4
_symmetry_space_group_name_H-M  'P2_1/m'
_cell_length_a       8.1842
_cell_length_b       3.84784
_cell_length_c       8.98725
_cell_angle_alpha    90
_cell_angle_beta     90.1233
_cell_angle_gamma    90

_symmetry_Int_Tables_number  11
_chemical_formula_structural  LiTi2O4
_chemical_formula_sum  Li4Ti8O6
_cell_volume  283.0211298234456
_cell_formula_units_Z  4
loop_
  _symmetry_equiv_pos_site_id
 _symmetry_equiv_pos_as_xyz
 1  'x, y, z'
loop_
 _atom_site_type_symbol
 _atom_site_label
 _atom_site_symmetry_multiplicity
 _atom_site_fract_x
 _atom_site_fract_y
 _atom_site_fract_z
 _atom_site_fract_occupancy
 Li  Li1  1  0.99668  0.75000  0.09795  1
 Li  Li2  1  0.00332  0.25000  0.90205  1
 Li  Li3  1  0.25063  0.25000  0.59094  1
 Li  Li4  1  0.74937  0.75000  0.40906  1
 O  O1  1  0.23970  0.75000  0.10099  1
 O  O2  1  0.99827  0.25000  0.14299  1
 O  O3  1  0.24487  0.25000  0.90371  1
 O  O4  1  0.76030  0.25000  0.89901  1
 O  O5  1  0.50235  0.75000  0.85985  1
 O  O6  1  0.00173  0.75000  0.85701  1
 O  O7  1  0.75513  0.75000  0.09629  1
 O  O8  1  0.75128  0.75000  0.63490  1
 O  O9  1  0.49085  0.25000  0.59829  1
 O  O10  1  0.50915  0.75000  0.40171  1
 O  O11  1  0.99134  0.75000  0.39961  1
 O  O12  1  0.75101  0.25000  0.34469  1
 O  O13  1  0.24899  0.75000  0.65531  1
 O  O14  1  0.00866  0.25000  0.60039  1
 O  O15  1  0.24872  0.25000  0.36510  1
 O  O16  1  0.49765  0.25000  0.14015  1
 Ti  Ti1  1  0.50842  0.75000  0.63654  1
 Ti  Ti2  1  0.27325  0.75000  0.87067  1
 Ti  Ti3  1  0.73945  0.75000  0.85846  1
 Ti  Ti4  1  0.98930  0.75000  0.63939  1
 Ti  Ti5  1  0.01070  0.25000  0.36061  1
 Ti  Ti6  1  0.49158  0.25000  0.36346  1
 Ti  Ti7  1  0.26055  0.25000  0.14154  1
 Ti  Ti8  1  0.72675  0.25000  0.12933  1
