CIF file written using JARVIS-Tools package.
data_CuBiSCl2
_symmetry_space_group_name_H-M  'Cmcm'
_cell_length_a       4.05992
_cell_length_b       6.713
_cell_length_c       8.50933
_cell_angle_alpha    90
_cell_angle_beta     90
_cell_angle_gamma    107.601

_symmetry_Int_Tables_number  63
_chemical_formula_structural  CuBiSCl2
_chemical_formula_sum  Cu2Bi2S2Cl4
_cell_volume  221.05760195342614
_cell_formula_units_Z  2
loop_
  _symmetry_equiv_pos_site_id
 _symmetry_equiv_pos_as_xyz
 1  'x, y, z'
loop_
 _atom_site_type_symbol
 _atom_site_label
 _atom_site_symmetry_multiplicity
 _atom_site_fract_x
 _atom_site_fract_y
 _atom_site_fract_z
 _atom_site_fract_occupancy
 Bi  Bi1  1  0.70740  0.41481  0.25000  1
 Bi  Bi2  1  0.29260  0.58519  0.75000  1
 Cl  Cl1  1  0.35132  0.70263  0.06436  1
 Cl  Cl2  1  0.35132  0.70263  0.43564  1
 Cl  Cl3  1  0.64868  0.29737  0.93564  1
 Cl  Cl4  1  0.64868  0.29737  0.56436  1
 Cu  Cu1  1  0.00000  0.00000  0.00000  1
 Cu  Cu2  1  0.00000  0.00000  0.50000  1
 S  S1  1  0.93522  0.87044  0.75000  1
 S  S2  1  0.06478  0.12956  0.25000  1
