CIF file written using JARVIS-Tools package.
data_YTcN3
_symmetry_space_group_name_H-M  'Amm2'
_cell_length_a       3.98286
_cell_length_b       4.04218
_cell_length_c       4.1886
_cell_angle_alpha    90
_cell_angle_beta     61.6119
_cell_angle_gamma    90

_symmetry_Int_Tables_number  38
_chemical_formula_structural  YTcN3
_chemical_formula_sum  YTcN3
_cell_volume  59.32498970682731
_cell_formula_units_Z  1
loop_
  _symmetry_equiv_pos_site_id
 _symmetry_equiv_pos_as_xyz
 1  'x, y, z'
loop_
 _atom_site_type_symbol
 _atom_site_label
 _atom_site_symmetry_multiplicity
 _atom_site_fract_x
 _atom_site_fract_y
 _atom_site_fract_z
 _atom_site_fract_occupancy
 N  N1  1  0.41295  0.00000  0.51116  1
 N  N2  1  0.07589  0.00000  0.51116  1
 N  N3  1  0.51056  0.50000  0.97887  1
 Tc  Tc1  1  0.52401  0.00000  0.95198  1
 Y  Y1  1  0.83117  0.50000  0.33766  1
