CIF file written using JARVIS-Tools package.
data_SrBr3
_symmetry_space_group_name_H-M  'P6_3/mmc'
_cell_length_a       6.68264
_cell_length_b       6.68264
_cell_length_c       5.89884
_cell_angle_alpha    90
_cell_angle_beta     90
_cell_angle_gamma    120

_symmetry_Int_Tables_number  194
_chemical_formula_structural  SrBr3
_chemical_formula_sum  Sr2Br6
_cell_volume  228.13532099491073
_cell_formula_units_Z  2
loop_
  _symmetry_equiv_pos_site_id
 _symmetry_equiv_pos_as_xyz
 1  'x, y, z'
loop_
 _atom_site_type_symbol
 _atom_site_label
 _atom_site_symmetry_multiplicity
 _atom_site_fract_x
 _atom_site_fract_y
 _atom_site_fract_z
 _atom_site_fract_occupancy
 Br  Br1  1  0.17159  0.82841  0.75000  1
 Br  Br2  1  0.65682  0.82841  0.75000  1
 Br  Br3  1  0.17159  0.34318  0.75000  1
 Br  Br4  1  0.82841  0.17159  0.25000  1
 Br  Br5  1  0.34318  0.17159  0.25000  1
 Br  Br6  1  0.82841  0.65682  0.25000  1
 Sr  Sr1  1  0.33333  0.66667  0.25000  1
 Sr  Sr2  1  0.66667  0.33333  0.75000  1
