CIF file written using JARVIS-Tools package.
data_AgHgO2
_symmetry_space_group_name_H-M  'P-1'
_cell_length_a       3.84029
_cell_length_b       5.54387
_cell_length_c       5.87979
_cell_angle_alpha    90.3861
_cell_angle_beta     92.6327
_cell_angle_gamma    90.1338

_symmetry_Int_Tables_number  2
_chemical_formula_structural  AgHgO2
_chemical_formula_sum  Ag2Hg2O4
_cell_volume  125.04544837750387
_cell_formula_units_Z  2
loop_
  _symmetry_equiv_pos_site_id
 _symmetry_equiv_pos_as_xyz
 1  'x, y, z'
loop_
 _atom_site_type_symbol
 _atom_site_label
 _atom_site_symmetry_multiplicity
 _atom_site_fract_x
 _atom_site_fract_y
 _atom_site_fract_z
 _atom_site_fract_occupancy
 Ag  Ag1  1  0.50000  0.00000  -0.00000  1
 Ag  Ag2  1  0.50000  0.50000  0.50000  1
 Hg  Hg1  1  0.00000  0.00000  0.50000  1
 Hg  Hg2  1  0.00000  0.50000  -0.00000  1
 O  O1  1  0.66679  0.70477  0.79504  1
 O  O2  1  0.65855  0.79598  0.29568  1
 O  O3  1  0.33321  0.29523  0.20496  1
 O  O4  1  0.34145  0.20402  0.70432  1
