CIF file written using JARVIS-Tools package.
data_Nd2MgGe2
_symmetry_space_group_name_H-M  'P4/mbm'
_cell_length_a       7.46357
_cell_length_b       7.46357
_cell_length_c       4.38851
_cell_angle_alpha    90
_cell_angle_beta     90
_cell_angle_gamma    90

_symmetry_Int_Tables_number  127
_chemical_formula_structural  Nd2MgGe2
_chemical_formula_sum  Nd4Mg2Ge4
_cell_volume  244.46152187946623
_cell_formula_units_Z  2
loop_
  _symmetry_equiv_pos_site_id
 _symmetry_equiv_pos_as_xyz
 1  'x, y, z'
loop_
 _atom_site_type_symbol
 _atom_site_label
 _atom_site_symmetry_multiplicity
 _atom_site_fract_x
 _atom_site_fract_y
 _atom_site_fract_z
 _atom_site_fract_occupancy
 Ge  Ge1  1  0.12160  0.62160  0.00000  1
 Ge  Ge2  1  0.37840  0.12160  0.00000  1
 Ge  Ge3  1  0.62160  0.87840  0.00000  1
 Ge  Ge4  1  0.87840  0.37840  0.00000  1
 Mg  Mg1  1  0.00000  0.00000  0.00000  1
 Mg  Mg2  1  0.50000  0.50000  0.00000  1
 Nd  Nd1  1  0.17863  0.32137  0.50000  1
 Nd  Nd2  1  0.32137  0.82137  0.50000  1
 Nd  Nd3  1  0.67863  0.17863  0.50000  1
 Nd  Nd4  1  0.82137  0.67863  0.50000  1
