CIF file written using JARVIS-Tools package.
data_GaPS4
_symmetry_space_group_name_H-M  'P2_1/c'
_cell_length_a       8.06006
_cell_length_b       7.8588
_cell_length_c       11.8796
_cell_angle_alpha    90
_cell_angle_beta     131.763
_cell_angle_gamma    90

_symmetry_Int_Tables_number  14
_chemical_formula_structural  GaPS4
_chemical_formula_sum  Ga4P4S6
_cell_volume  561.2769589233478
_cell_formula_units_Z  4
loop_
  _symmetry_equiv_pos_site_id
 _symmetry_equiv_pos_as_xyz
 1  'x, y, z'
loop_
 _atom_site_type_symbol
 _atom_site_label
 _atom_site_symmetry_multiplicity
 _atom_site_fract_x
 _atom_site_fract_y
 _atom_site_fract_z
 _atom_site_fract_occupancy
 Ga  Ga1  1  0.37606  0.53486  0.61659  1
 Ga  Ga2  1  0.62394  0.03486  0.88341  1
 Ga  Ga3  1  0.62394  0.46514  0.38341  1
 Ga  Ga4  1  0.37606  0.96514  0.11659  1
 P  P1  1  0.35820  0.74388  0.35345  1
 P  P2  1  0.35820  0.75612  0.85345  1
 P  P3  1  0.64180  0.25612  0.64655  1
 P  P4  1  0.64180  0.24388  0.14655  1
 S  S1  1  0.75353  0.47693  0.77334  1
 S  S2  1  0.24647  0.97693  0.72666  1
 S  S3  1  0.24647  0.52307  0.22666  1
 S  S4  1  0.77771  0.03589  0.77544  1
 S  S5  1  0.29850  0.26691  0.50981  1
 S  S6  1  0.70150  0.76691  0.99019  1
 S  S7  1  0.75353  0.02307  0.27334  1
 S  S8  1  0.74866  0.22534  0.53014  1
 S  S9  1  0.25134  0.77466  0.46986  1
 S  S10  1  0.74866  0.27466  0.03014  1
 S  S11  1  0.70150  0.73309  0.49019  1
 S  S12  1  0.25134  0.72534  0.96986  1
 S  S13  1  0.22229  0.96411  0.22456  1
 S  S14  1  0.22229  0.53589  0.72456  1
 S  S15  1  0.29850  0.23309  0.00981  1
 S  S16  1  0.77771  0.46411  0.27544  1
