CIF file written using JARVIS-Tools package.
data_Na3LiP2O7
_symmetry_space_group_name_H-M  'C222_1'
_cell_length_a       5.3391
_cell_length_b       5.3391
_cell_length_c       12.2539
_cell_angle_alpha    90
_cell_angle_beta     90
_cell_angle_gamma    117.858

_symmetry_Int_Tables_number  20
_chemical_formula_structural  Na3LiP2O7
_chemical_formula_sum  Na6Li2P4O4
_cell_volume  308.82811549795275
_cell_formula_units_Z  2
loop_
  _symmetry_equiv_pos_site_id
 _symmetry_equiv_pos_as_xyz
 1  'x, y, z'
loop_
 _atom_site_type_symbol
 _atom_site_label
 _atom_site_symmetry_multiplicity
 _atom_site_fract_x
 _atom_site_fract_y
 _atom_site_fract_z
 _atom_site_fract_occupancy
 Li  Li1  1  0.53960  0.46040  0.75000  1
 Li  Li2  1  0.46040  0.53960  0.25000  1
 Na  Na1  1  0.65588  0.65588  0.00000  1
 Na  Na2  1  0.34412  0.34412  0.50000  1
 Na  Na3  1  0.30131  0.95547  0.87988  1
 Na  Na4  1  0.95547  0.30131  0.12012  1
 Na  Na5  1  0.69869  0.04453  0.37988  1
 Na  Na6  1  0.04453  0.69869  0.62012  1
 O  O1  1  0.90943  0.09057  0.75000  1
 O  O2  1  0.41679  0.29232  0.12779  1
 O  O3  1  0.70768  0.58321  0.37221  1
 O  O4  1  0.58321  0.70768  0.62779  1
 O  O5  1  0.78314  0.13213  0.94467  1
 O  O6  1  0.29232  0.41679  0.87221  1
 O  O7  1  0.21686  0.86787  0.44467  1
 O  O8  1  0.90838  0.54566  0.81300  1
 O  O9  1  0.86787  0.21686  0.55533  1
 O  O10  1  0.09162  0.45434  0.31300  1
 O  O11  1  0.45434  0.09162  0.68700  1
 O  O12  1  0.13213  0.78314  0.05533  1
 O  O13  1  0.54566  0.90838  0.18700  1
 O  O14  1  0.09057  0.90943  0.25000  1
 P  P1  1  0.31035  0.97512  0.14786  1
 P  P2  1  0.97512  0.31035  0.85214  1
 P  P3  1  0.02488  0.68965  0.35214  1
 P  P4  1  0.68965  0.02488  0.64786  1
