CIF file written using JARVIS-Tools package.
data_UBiSb
_symmetry_space_group_name_H-M  'P4/nmm'
_cell_length_a       4.41959
_cell_length_b       4.41959
_cell_length_c       8.88131
_cell_angle_alpha    90
_cell_angle_beta     90
_cell_angle_gamma    90

_symmetry_Int_Tables_number  129
_chemical_formula_structural  UBiSb
_chemical_formula_sum  U2Bi2Sb2
_cell_volume  173.47681895541604
_cell_formula_units_Z  2
loop_
  _symmetry_equiv_pos_site_id
 _symmetry_equiv_pos_as_xyz
 1  'x, y, z'
loop_
 _atom_site_type_symbol
 _atom_site_label
 _atom_site_symmetry_multiplicity
 _atom_site_fract_x
 _atom_site_fract_y
 _atom_site_fract_z
 _atom_site_fract_occupancy
 Bi  Bi1  1  0.50000  0.50000  0.00000  1
 Bi  Bi2  1  0.00000  0.00000  0.00000  1
 Sb  Sb1  1  0.00000  0.50000  0.64363  1
 Sb  Sb2  1  0.50000  0.00000  0.35637  1
 U  U1  1  0.00000  0.50000  0.29200  1
 U  U2  1  0.50000  0.00000  0.70800  1
