CIF file written using JARVIS-Tools package.
data_GaBr3
_symmetry_space_group_name_H-M  'P2_1/c'
_cell_length_a       8.86407
_cell_length_b       5.53948
_cell_length_c       10.9297
_cell_angle_alpha    90
_cell_angle_beta     107.683
_cell_angle_gamma    90

_symmetry_Int_Tables_number  14
_chemical_formula_structural  GaBr3
_chemical_formula_sum  Ga4Br2
_cell_volume  511.31527361423156
_cell_formula_units_Z  4
loop_
  _symmetry_equiv_pos_site_id
 _symmetry_equiv_pos_as_xyz
 1  'x, y, z'
loop_
 _atom_site_type_symbol
 _atom_site_label
 _atom_site_symmetry_multiplicity
 _atom_site_fract_x
 _atom_site_fract_y
 _atom_site_fract_z
 _atom_site_fract_occupancy
 Br  Br1  1  0.83230  0.74656  0.21307  1
 Br  Br2  1  0.16770  0.24656  0.28693  1
 Br  Br3  1  0.16770  0.25344  0.78693  1
 Br  Br4  1  0.83230  0.75344  0.71307  1
 Br  Br5  1  0.83155  0.25748  0.95065  1
 Br  Br6  1  0.16845  0.75748  0.54935  1
 Br  Br7  1  0.16845  0.74252  0.04935  1
 Br  Br8  1  0.83155  0.24252  0.45065  1
 Br  Br9  1  0.50072  0.77111  0.88221  1
 Br  Br10  1  0.49928  0.27111  0.61779  1
 Br  Br11  1  0.49928  0.22889  0.11779  1
 Br  Br12  1  0.50072  0.72889  0.38221  1
 Ga  Ga1  1  0.70305  0.00156  0.05010  1
 Ga  Ga2  1  0.29695  0.50156  0.44990  1
 Ga  Ga3  1  0.29695  0.99844  0.94990  1
 Ga  Ga4  1  0.70305  0.49844  0.55010  1
