CIF file written using JARVIS-Tools package.
data_OsSe2Cl12
_symmetry_space_group_name_H-M  'Fdd2'
_cell_length_a       8.48164
_cell_length_b       8.48163
_cell_length_c       12.0493
_cell_angle_alpha    108.744
_cell_angle_beta     108.744
_cell_angle_gamma    94.9899

_symmetry_Int_Tables_number  43
_chemical_formula_structural  OsSe2Cl12
_chemical_formula_sum  Os2Se4Cl24
_cell_volume  759.6041425638965
_cell_formula_units_Z  2
loop_
  _symmetry_equiv_pos_site_id
 _symmetry_equiv_pos_as_xyz
 1  'x, y, z'
loop_
 _atom_site_type_symbol
 _atom_site_label
 _atom_site_symmetry_multiplicity
 _atom_site_fract_x
 _atom_site_fract_y
 _atom_site_fract_z
 _atom_site_fract_occupancy
 Cl  Cl1  1  0.96496  0.13661  0.83719  1
 Cl  Cl2  1  0.87223  0.70057  0.83719  1
 Cl  Cl3  1  0.77878  0.46282  0.98965  1
 Cl  Cl4  1  0.53887  0.87655  0.67784  1
 Cl  Cl5  1  0.45057  0.12223  0.33719  1
 Cl  Cl6  1  0.70184  0.55172  0.48867  1
 Cl  Cl7  1  0.55129  0.38898  0.17784  1
 Cl  Cl8  1  0.11176  0.29026  0.15148  1
 Cl  Cl9  1  0.45228  0.64241  0.82996  1
 Cl  Cl10  1  0.21088  0.52683  0.98965  1
 Cl  Cl11  1  0.27683  0.46088  0.48965  1
 Cl  Cl12  1  0.88661  0.21496  0.33719  1
 Cl  Cl13  1  0.68695  0.03683  0.98867  1
 Cl  Cl14  1  0.78683  0.93695  0.48867  1
 Cl  Cl15  1  0.04026  0.36176  0.65148  1
 Cl  Cl16  1  0.13898  0.80129  0.67784  1
 Cl  Cl17  1  0.61122  0.28973  0.65148  1
 Cl  Cl18  1  0.30172  0.95184  0.98867  1
 Cl  Cl19  1  0.37768  0.18755  0.82996  1
 Cl  Cl20  1  0.21282  0.02878  0.48965  1
 Cl  Cl21  1  0.93755  0.62768  0.32996  1
 Cl  Cl22  1  0.62655  0.78887  0.17784  1
 Cl  Cl23  1  0.03973  0.86122  0.15148  1
 Cl  Cl24  1  0.39241  0.70228  0.32996  1
 Os  Os1  1  0.41501  0.91501  0.83001  1
 Os  Os2  1  0.66501  0.66501  0.33001  1
 Se  Se1  1  0.01962  0.46117  0.49742  1
 Se  Se2  1  0.21117  0.26962  0.99742  1
 Se  Se3  1  0.78624  0.72780  0.99742  1
 Se  Se4  1  0.47780  0.03624  0.49742  1
