CIF file written using JARVIS-Tools package.
data_KBaSiHO4
_symmetry_space_group_name_H-M  'P2_1'
_cell_length_a       5.85059
_cell_length_b       8.09332
_cell_length_c       6.00053
_cell_angle_alpha    90
_cell_angle_beta     118.745
_cell_angle_gamma    90

_symmetry_Int_Tables_number  4
_chemical_formula_structural  KBaSiHO4
_chemical_formula_sum  K2Ba2Si2H2O8
_cell_volume  249.11635553494168
_cell_formula_units_Z  2
loop_
  _symmetry_equiv_pos_site_id
 _symmetry_equiv_pos_as_xyz
 1  'x, y, z'
loop_
 _atom_site_type_symbol
 _atom_site_label
 _atom_site_symmetry_multiplicity
 _atom_site_fract_x
 _atom_site_fract_y
 _atom_site_fract_z
 _atom_site_fract_occupancy
 Ba  Ba1  1  0.01672  0.48277  -0.00013  1
 Ba  Ba2  1  0.98328  0.98277  0.00013  1
 H  H1  1  0.51139  0.00940  0.44969  1
 H  H2  1  0.48861  0.50940  0.55031  1
 K  K1  1  0.37285  0.22896  0.70139  1
 K  K2  1  0.62715  0.72896  0.29861  1
 O  O1  1  0.83900  0.24517  0.19428  1
 O  O2  1  0.16100  0.74517  0.80572  1
 O  O3  1  0.91496  0.22951  0.68130  1
 O  O4  1  0.08504  0.72951  0.31870  1
 O  O5  1  0.50871  0.40432  0.32967  1
 O  O6  1  0.49129  0.90432  0.67033  1
 O  O7  1  0.51317  0.07077  0.30119  1
 O  O8  1  0.48683  0.57077  0.69881  1
 Si  Si1  1  0.70505  0.24610  0.37806  1
 Si  Si2  1  0.29495  0.74610  0.62194  1
