CIF file written using JARVIS-Tools package.
data_H3Pt
_symmetry_space_group_name_H-M  'P6_3/mmc'
_cell_length_a       3.59888
_cell_length_b       3.59888
_cell_length_c       5.58687
_cell_angle_alpha    90
_cell_angle_beta     90
_cell_angle_gamma    120

_symmetry_Int_Tables_number  194
_chemical_formula_structural  H3Pt
_chemical_formula_sum  H6Pt2
_cell_volume  62.666350744771094
_cell_formula_units_Z  2
loop_
  _symmetry_equiv_pos_site_id
 _symmetry_equiv_pos_as_xyz
 1  'x, y, z'
loop_
 _atom_site_type_symbol
 _atom_site_label
 _atom_site_symmetry_multiplicity
 _atom_site_fract_x
 _atom_site_fract_y
 _atom_site_fract_z
 _atom_site_fract_occupancy
 H  H1  1  0.16413  0.32826  0.25000  1
 H  H2  1  0.67174  0.83587  0.25000  1
 H  H3  1  0.16413  0.83587  0.25000  1
 H  H4  1  0.83587  0.67174  0.75000  1
 H  H5  1  0.32826  0.16413  0.75000  1
 H  H6  1  0.83587  0.16413  0.75000  1
 Pt  Pt1  1  0.33333  0.66667  0.75000  1
 Pt  Pt2  1  0.66667  0.33333  0.25000  1
