CIF file written using JARVIS-Tools package.
data_Zn3CdS4
_symmetry_space_group_name_H-M  'P-43m'
_cell_length_a       5.55137
_cell_length_b       5.55137
_cell_length_c       5.55137
_cell_angle_alpha    90
_cell_angle_beta     90
_cell_angle_gamma    90

_symmetry_Int_Tables_number  215
_chemical_formula_structural  Zn3CdS4
_chemical_formula_sum  Zn3CdS4
_cell_volume  171.08059335421007
_cell_formula_units_Z  1
loop_
  _symmetry_equiv_pos_site_id
 _symmetry_equiv_pos_as_xyz
 1  'x, y, z'
loop_
 _atom_site_type_symbol
 _atom_site_label
 _atom_site_symmetry_multiplicity
 _atom_site_fract_x
 _atom_site_fract_y
 _atom_site_fract_z
 _atom_site_fract_occupancy
 Cd  Cd1  1  0.00000  0.00000  0.00000  1
 S  S1  1  0.26226  0.26226  0.26226  1
 S  S2  1  0.73774  0.73774  0.26226  1
 S  S3  1  0.26226  0.73774  0.73774  1
 S  S4  1  0.73774  0.26226  0.73774  1
 Zn  Zn1  1  0.00000  0.50000  0.50000  1
 Zn  Zn2  1  0.50000  0.00000  0.50000  1
 Zn  Zn3  1  0.50000  0.50000  0.00000  1
