CIF file written using JARVIS-Tools package.
data_CrO2
_symmetry_space_group_name_H-M  'C2/c'
_cell_length_a       2.89995
_cell_length_b       9.03731
_cell_length_c       2.89944
_cell_angle_alpha    89.9903
_cell_angle_beta     119.998
_cell_angle_gamma    99.2071

_symmetry_Int_Tables_number  15
_chemical_formula_structural  CrO2
_chemical_formula_sum  Cr2O4
_cell_volume  64.67676833302774
_cell_formula_units_Z  2
loop_
  _symmetry_equiv_pos_site_id
 _symmetry_equiv_pos_as_xyz
 1  'x, y, z'
loop_
 _atom_site_type_symbol
 _atom_site_label
 _atom_site_symmetry_multiplicity
 _atom_site_fract_x
 _atom_site_fract_y
 _atom_site_fract_z
 _atom_site_fract_occupancy
 Cr  Cr1  1  0.50309  0.74980  0.24630  1
 Cr  Cr2  1  0.50483  0.24973  0.74821  1
 O  O1  1  0.76752  0.14342  0.37958  1
 O  O2  1  0.76580  0.64348  0.87773  1
 O  O3  1  0.24211  0.35606  0.11680  1
 O  O4  1  0.24040  0.85611  0.61490  1
