CIF file written using JARVIS-Tools package.
data_HfV2H4
_symmetry_space_group_name_H-M  'I4_1/a'
_cell_length_a       5.49268
_cell_length_b       5.39859
_cell_length_c       5.39859
_cell_angle_alpha    90
_cell_angle_beta     119.435
_cell_angle_gamma    119.435

_symmetry_Int_Tables_number  88
_chemical_formula_structural  HfV2H4
_chemical_formula_sum  Hf2V4H8
_cell_volume  115.10196043247444
_cell_formula_units_Z  2
loop_
  _symmetry_equiv_pos_site_id
 _symmetry_equiv_pos_as_xyz
 1  'x, y, z'
loop_
 _atom_site_type_symbol
 _atom_site_label
 _atom_site_symmetry_multiplicity
 _atom_site_fract_x
 _atom_site_fract_y
 _atom_site_fract_z
 _atom_site_fract_occupancy
 H  H1  1  0.37248  0.50568  0.11696  1
 H  H2  1  0.12752  0.88304  0.13320  1
 H  H3  1  0.62752  0.13320  0.24449  1
 H  H4  1  0.12752  0.24448  0.49433  1
 H  H5  1  0.87248  0.75552  0.50567  1
 H  H6  1  0.37248  0.86680  0.75552  1
 H  H7  1  0.87248  0.11696  0.86680  1
 H  H8  1  0.62752  0.49433  0.88304  1
 Hf  Hf1  1  0.75000  0.87500  0.12500  1
 Hf  Hf2  1  0.25000  0.12500  0.87500  1
 V  V1  1  0.00000  0.50000  0.00000  1
 V  V2  1  0.00000  0.50000  0.50000  1
 V  V3  1  0.50000  0.50000  0.50000  1
 V  V4  1  0.50000  1.00000  0.50000  1
