CIF file written using JARVIS-Tools package.
data_VO2
_symmetry_space_group_name_H-M  'C2/m'
_cell_length_a       2.90021
_cell_length_b       4.74242
_cell_length_c       5.02915
_cell_angle_alpha    98.6703
_cell_angle_beta     90.0142
_cell_angle_gamma    72.1445

_symmetry_Int_Tables_number  12
_chemical_formula_structural  VO2
_chemical_formula_sum  V2O4
_cell_volume  65.0091924213795
_cell_formula_units_Z  2
loop_
  _symmetry_equiv_pos_site_id
 _symmetry_equiv_pos_as_xyz
 1  'x, y, z'
loop_
 _atom_site_type_symbol
 _atom_site_label
 _atom_site_symmetry_multiplicity
 _atom_site_fract_x
 _atom_site_fract_y
 _atom_site_fract_z
 _atom_site_fract_occupancy
 O  O1  1  0.11441  0.77184  0.64593  1
 O  O2  1  0.60540  0.78975  0.12813  1
 O  O3  1  0.38559  0.22816  0.85407  1
 O  O4  1  0.89460  0.21025  0.37187  1
 V  V1  1  0.97551  0.04894  0.01067  1
 V  V2  1  0.52449  0.95106  0.48933  1
