CIF file written using JARVIS-Tools package.
data_ErLuMg2
_symmetry_space_group_name_H-M  'Fm-3m'
_cell_length_a       5.25751
_cell_length_b       5.25751
_cell_length_c       5.25751
_cell_angle_alpha    59.9998
_cell_angle_beta     59.9998
_cell_angle_gamma    59.9998

_symmetry_Int_Tables_number  225
_chemical_formula_structural  ErLuMg2
_chemical_formula_sum  ErLuMg2
_cell_volume  102.75971259384124
_cell_formula_units_Z  1
loop_
  _symmetry_equiv_pos_site_id
 _symmetry_equiv_pos_as_xyz
 1  'x, y, z'
loop_
 _atom_site_type_symbol
 _atom_site_label
 _atom_site_symmetry_multiplicity
 _atom_site_fract_x
 _atom_site_fract_y
 _atom_site_fract_z
 _atom_site_fract_occupancy
 Er  Er1  1  0.25000  0.25000  0.25000  1
 Lu  Lu1  1  0.75000  0.75000  0.75000  1
 Mg  Mg1  1  0.00000  0.00000  0.00000  1
 Mg  Mg2  1  0.50000  0.50000  0.50000  1
