CIF file written using JARVIS-Tools package.
data_MgZr3
_symmetry_space_group_name_H-M  'P6_3/mmc'
_cell_length_a       6.34211
_cell_length_b       6.34211
_cell_length_c       5.14408
_cell_angle_alpha    90
_cell_angle_beta     90
_cell_angle_gamma    120

_symmetry_Int_Tables_number  194
_chemical_formula_structural  MgZr3
_chemical_formula_sum  Mg2Zr6
_cell_volume  179.18656363417497
_cell_formula_units_Z  2
loop_
  _symmetry_equiv_pos_site_id
 _symmetry_equiv_pos_as_xyz
 1  'x, y, z'
loop_
 _atom_site_type_symbol
 _atom_site_label
 _atom_site_symmetry_multiplicity
 _atom_site_fract_x
 _atom_site_fract_y
 _atom_site_fract_z
 _atom_site_fract_occupancy
 Mg  Mg1  1  0.33333  0.66667  0.75000  1
 Mg  Mg2  1  0.66667  0.33333  0.25000  1
 Zr  Zr1  1  0.83149  0.66297  0.75000  1
 Zr  Zr2  1  0.33703  0.16851  0.75000  1
 Zr  Zr3  1  0.83149  0.16851  0.75000  1
 Zr  Zr4  1  0.16851  0.83149  0.25000  1
 Zr  Zr5  1  0.66297  0.83149  0.25000  1
 Zr  Zr6  1  0.16851  0.33703  0.25000  1
