CIF file written using JARVIS-Tools package.
data_In2Te5
_symmetry_space_group_name_H-M  'Cc'
_cell_length_a       4.37242
_cell_length_b       8.64054
_cell_length_c       13.6715
_cell_angle_alpha    89.9789
_cell_angle_beta     89.9162
_cell_angle_gamma    75.346

_symmetry_Int_Tables_number  9
_chemical_formula_structural  In2Te5
_chemical_formula_sum  In4Te0
_cell_volume  499.70812479542406
_cell_formula_units_Z  2
loop_
  _symmetry_equiv_pos_site_id
 _symmetry_equiv_pos_as_xyz
 1  'x, y, z'
loop_
 _atom_site_type_symbol
 _atom_site_label
 _atom_site_symmetry_multiplicity
 _atom_site_fract_x
 _atom_site_fract_y
 _atom_site_fract_z
 _atom_site_fract_occupancy
 In  In1  1  0.61059  0.76918  0.31256  1
 In  In2  1  0.99296  0.00587  0.14034  1
 In  In3  1  0.37949  0.23084  0.81256  1
 In  In4  1  -0.00124  0.99411  0.64035  1
 Te  Te1  1  0.30103  0.38775  0.23296  1
 Te  Te2  1  0.39249  0.20735  0.59908  1
 Te  Te3  1  0.68859  0.61226  0.73297  1
 Te  Te4  1  0.15977  0.67702  0.57873  1
 Te  Te5  1  0.22540  0.54272  0.88466  1
 Te  Te6  1  0.00423  0.98190  0.35436  1
 Te  Te7  1  0.98585  0.01810  0.85436  1
 Te  Te8  1  0.83691  0.32296  0.07872  1
 Te  Te9  1  0.76824  0.45729  0.38466  1
 Te  Te10  1  0.59989  0.79264  0.09908  1
