CIF file written using JARVIS-Tools package.
data_SI2O6
_symmetry_space_group_name_H-M  'C2/c'
_cell_length_a       4.71928
_cell_length_b       8.03456
_cell_length_c       8.67273
_cell_angle_alpha    71.9704
_cell_angle_beta     74.2122
_cell_angle_gamma    72.9212

_symmetry_Int_Tables_number  15
_chemical_formula_structural  SI2O6
_chemical_formula_sum  S2I4O2
_cell_volume  292.9119677990202
_cell_formula_units_Z  2
loop_
  _symmetry_equiv_pos_site_id
 _symmetry_equiv_pos_as_xyz
 1  'x, y, z'
loop_
 _atom_site_type_symbol
 _atom_site_label
 _atom_site_symmetry_multiplicity
 _atom_site_fract_x
 _atom_site_fract_y
 _atom_site_fract_z
 _atom_site_fract_occupancy
 I  I1  1  0.13555  0.07403  0.25256  1
 I  I2  1  0.86445  0.92597  0.74744  1
 I  I3  1  0.53786  0.57403  0.75256  1
 I  I4  1  0.46214  0.42597  0.24744  1
 O  O1  1  0.70304  0.70630  0.85956  1
 O  O2  1  0.37393  0.10350  0.85231  1
 O  O3  1  0.67027  0.60350  0.35231  1
 O  O4  1  0.62607  0.89650  0.14769  1
 O  O5  1  0.90085  0.31810  0.86830  1
 O  O6  1  0.08725  0.18190  0.63170  1
 O  O7  1  0.26890  0.79370  0.64044  1
 O  O8  1  0.32973  0.39650  0.64769  1
 O  O9  1  0.29696  0.29370  0.14044  1
 O  O10  1  0.91275  0.81810  0.36830  1
 O  O11  1  0.09915  0.68190  0.13170  1
 O  O12  1  0.73110  0.20630  0.35956  1
 S  S1  1  0.17606  0.25000  0.75000  1
 S  S2  1  0.82394  0.75000  0.25000  1
