CIF file written using JARVIS-Tools package.
data_HAuO2
_symmetry_space_group_name_H-M  'P-1'
_cell_length_a       4.09155
_cell_length_b       4.67269
_cell_length_c       5.44538
_cell_angle_alpha    92.1602
_cell_angle_beta     90.5402
_cell_angle_gamma    113.925

_symmetry_Int_Tables_number  2
_chemical_formula_structural  HAuO2
_chemical_formula_sum  H2Au2O4
_cell_volume  95.05989735441794
_cell_formula_units_Z  2
loop_
  _symmetry_equiv_pos_site_id
 _symmetry_equiv_pos_as_xyz
 1  'x, y, z'
loop_
 _atom_site_type_symbol
 _atom_site_label
 _atom_site_symmetry_multiplicity
 _atom_site_fract_x
 _atom_site_fract_y
 _atom_site_fract_z
 _atom_site_fract_occupancy
 Au  Au1  1  -0.00000  0.50000  -0.00000  1
 Au  Au2  1  0.50000  0.50000  0.50000  1
 H  H1  1  0.92016  0.97227  0.24829  1
 H  H2  1  0.07984  0.02773  0.75171  1
 O  O1  1  0.24761  0.28108  0.79922  1
 O  O2  1  0.95094  0.72270  0.70281  1
 O  O3  1  0.75239  0.71892  0.20078  1
 O  O4  1  0.04906  0.27730  0.29719  1
