CIF file written using JARVIS-Tools package.
data_GeO2
_symmetry_space_group_name_H-M  'Pbcn'
_cell_length_a       4.36344
_cell_length_b       4.84303
_cell_length_c       5.40361
_cell_angle_alpha    90
_cell_angle_beta     90
_cell_angle_gamma    90

_symmetry_Int_Tables_number  60
_chemical_formula_structural  GeO2
_chemical_formula_sum  Ge4O8
_cell_volume  114.19048677425452
_cell_formula_units_Z  4
loop_
  _symmetry_equiv_pos_site_id
 _symmetry_equiv_pos_as_xyz
 1  'x, y, z'
loop_
 _atom_site_type_symbol
 _atom_site_label
 _atom_site_symmetry_multiplicity
 _atom_site_fract_x
 _atom_site_fract_y
 _atom_site_fract_z
 _atom_site_fract_occupancy
 Ge  Ge1  1  0.50000  0.25000  0.65876  1
 Ge  Ge2  1  0.00000  0.75000  0.84124  1
 Ge  Ge3  1  0.50000  0.75000  0.34124  1
 Ge  Ge4  1  0.00000  0.25000  0.15876  1
 O  O1  1  0.76747  0.57888  0.11213  1
 O  O2  1  0.26747  0.42112  0.38787  1
 O  O3  1  0.73253  0.07888  0.38787  1
 O  O4  1  0.23253  0.92112  0.11213  1
 O  O5  1  0.76747  0.07888  0.88787  1
 O  O6  1  0.26747  0.92112  0.61213  1
 O  O7  1  0.73253  0.57888  0.61213  1
 O  O8  1  0.23253  0.42112  0.88787  1
