CIF file written using JARVIS-Tools package.
data_VCl3O
_symmetry_space_group_name_H-M  'Pnma'
_cell_length_a       4.89105
_cell_length_b       9.11666
_cell_length_c       11.2101
_cell_angle_alpha    90
_cell_angle_beta     90
_cell_angle_gamma    90

_symmetry_Int_Tables_number  62
_chemical_formula_structural  VCl3O
_chemical_formula_sum  V4Cl2O4
_cell_volume  499.8606082991552
_cell_formula_units_Z  4
loop_
  _symmetry_equiv_pos_site_id
 _symmetry_equiv_pos_as_xyz
 1  'x, y, z'
loop_
 _atom_site_type_symbol
 _atom_site_label
 _atom_site_symmetry_multiplicity
 _atom_site_fract_x
 _atom_site_fract_y
 _atom_site_fract_z
 _atom_site_fract_occupancy
 Cl  Cl1  1  0.77361  0.05456  0.36545  1
 Cl  Cl2  1  0.27361  0.05456  0.13455  1
 Cl  Cl3  1  0.72639  0.55456  0.86545  1
 Cl  Cl4  1  0.27361  0.44545  0.13455  1
 Cl  Cl5  1  0.22639  0.55456  0.63455  1
 Cl  Cl6  1  0.72639  0.94544  0.86545  1
 Cl  Cl7  1  0.22639  0.94544  0.63455  1
 Cl  Cl8  1  0.24490  0.75000  0.36207  1
 Cl  Cl9  1  0.77361  0.44545  0.36545  1
 Cl  Cl10  1  0.25510  0.25000  0.86207  1
 Cl  Cl11  1  0.74490  0.75000  0.13793  1
 Cl  Cl12  1  0.75510  0.25000  0.63793  1
 O  O1  1  0.30909  0.25000  0.44874  1
 O  O2  1  0.80909  0.25000  0.05126  1
 O  O3  1  0.69091  0.75000  0.55126  1
 O  O4  1  0.19091  0.75000  0.94874  1
 V  V1  1  0.63622  0.25000  0.45357  1
 V  V2  1  0.36378  0.75000  0.54643  1
 V  V3  1  0.86378  0.75000  0.95357  1
 V  V4  1  0.13622  0.25000  0.04643  1
