CIF file written using JARVIS-Tools package.
data_Tb2Be2O5
_symmetry_space_group_name_H-M  'P4/mmm'
_cell_length_a       3.60833
_cell_length_b       3.60833
_cell_length_c       6.78771
_cell_angle_alpha    90
_cell_angle_beta     90
_cell_angle_gamma    90

_symmetry_Int_Tables_number  123
_chemical_formula_structural  Tb2Be2O5
_chemical_formula_sum  Tb2Be2O5
_cell_volume  88.37651779544645
_cell_formula_units_Z  1
loop_
  _symmetry_equiv_pos_site_id
 _symmetry_equiv_pos_as_xyz
 1  'x, y, z'
loop_
 _atom_site_type_symbol
 _atom_site_label
 _atom_site_symmetry_multiplicity
 _atom_site_fract_x
 _atom_site_fract_y
 _atom_site_fract_z
 _atom_site_fract_occupancy
 Be  Be1  1  0.50000  0.50000  0.26701  1
 Be  Be2  1  0.50000  0.50000  0.73299  1
 O  O1  1  0.50000  0.00000  0.22165  1
 O  O2  1  0.50000  0.00000  0.77835  1
 O  O3  1  0.00000  0.50000  0.22165  1
 O  O4  1  0.00000  0.50000  0.77835  1
 O  O5  1  0.50000  0.50000  0.50000  1
 Tb  Tb1  1  0.00000  0.00000  0.00000  1
 Tb  Tb2  1  0.00000  0.00000  0.50000  1
