CIF file written using JARVIS-Tools package.
data_LiTm3
_symmetry_space_group_name_H-M  'P6_3/mmc'
_cell_length_a       6.823
_cell_length_b       5.38659
_cell_length_c       6.82334
_cell_angle_alpha    90
_cell_angle_beta     120.005
_cell_angle_gamma    90

_symmetry_Int_Tables_number  194
_chemical_formula_structural  LiTm3
_chemical_formula_sum  Li2Tm6
_cell_volume  217.16846412751744
_cell_formula_units_Z  2
loop_
  _symmetry_equiv_pos_site_id
 _symmetry_equiv_pos_as_xyz
 1  'x, y, z'
loop_
 _atom_site_type_symbol
 _atom_site_label
 _atom_site_symmetry_multiplicity
 _atom_site_fract_x
 _atom_site_fract_y
 _atom_site_fract_z
 _atom_site_fract_occupancy
 Li  Li1  1  0.33333  0.25000  0.66665  1
 Li  Li2  1  0.66667  0.75000  0.33335  1
 Tm  Tm1  1  0.16789  0.75000  0.33580  1
 Tm  Tm2  1  0.16790  0.75000  0.83213  1
 Tm  Tm3  1  0.66422  0.75000  0.83214  1
 Tm  Tm4  1  0.83211  0.25000  0.66420  1
 Tm  Tm5  1  0.83210  0.25000  0.16787  1
 Tm  Tm6  1  0.33578  0.25000  0.16786  1
