CIF file written using JARVIS-Tools package.
data_MoPO5
_symmetry_space_group_name_H-M  'P4/n'
_cell_length_a       4.18774
_cell_length_b       6.27125
_cell_length_c       6.27125
_cell_angle_alpha    90
_cell_angle_beta     90
_cell_angle_gamma    90

_symmetry_Int_Tables_number  85
_chemical_formula_structural  MoPO5
_chemical_formula_sum  Mo2P2O0
_cell_volume  164.69783047709277
_cell_formula_units_Z  2
loop_
  _symmetry_equiv_pos_site_id
 _symmetry_equiv_pos_as_xyz
 1  'x, y, z'
loop_
 _atom_site_type_symbol
 _atom_site_label
 _atom_site_symmetry_multiplicity
 _atom_site_fract_x
 _atom_site_fract_y
 _atom_site_fract_z
 _atom_site_fract_occupancy
 Mo  Mo1  1  0.80474  0.75000  0.75000  1
 Mo  Mo2  1  0.19526  0.25000  0.25000  1
 O  O1  1  0.71286  0.79987  0.44371  1
 O  O2  1  0.71286  0.05629  0.79987  1
 O  O3  1  0.71286  0.44371  0.70013  1
 O  O4  1  0.71286  0.70013  0.05629  1
 O  O5  1  0.79007  0.25000  0.25000  1
 O  O6  1  0.20993  0.75000  0.75000  1
 O  O7  1  0.28714  0.29987  0.94371  1
 O  O8  1  0.28714  0.20013  0.55629  1
 O  O9  1  0.28714  0.94371  0.20013  1
 O  O10  1  0.28714  0.55629  0.29987  1
 P  P1  1  0.50000  0.75000  0.25000  1
 P  P2  1  0.50000  0.25000  0.75000  1
