CIF file written using JARVIS-Tools package.
data_GaI3
_symmetry_space_group_name_H-M  'P2_1/c'
_cell_length_a       9.60667
_cell_length_b       6.00026
_cell_length_c       11.8053
_cell_angle_alpha    90
_cell_angle_beta     107.628
_cell_angle_gamma    90

_symmetry_Int_Tables_number  14
_chemical_formula_structural  GaI3
_chemical_formula_sum  Ga4I2
_cell_volume  648.5341325934496
_cell_formula_units_Z  4
loop_
  _symmetry_equiv_pos_site_id
 _symmetry_equiv_pos_as_xyz
 1  'x, y, z'
loop_
 _atom_site_type_symbol
 _atom_site_label
 _atom_site_symmetry_multiplicity
 _atom_site_fract_x
 _atom_site_fract_y
 _atom_site_fract_z
 _atom_site_fract_occupancy
 Ga  Ga1  1  0.69937  0.00134  0.04924  1
 Ga  Ga2  1  0.30063  0.50134  0.45076  1
 Ga  Ga3  1  0.30063  0.99866  0.95076  1
 Ga  Ga4  1  0.69937  0.49866  0.54924  1
 I  I1  1  0.83401  0.74391  0.21503  1
 I  I2  1  0.16599  0.24391  0.28497  1
 I  I3  1  0.16599  0.25609  0.78497  1
 I  I4  1  0.83401  0.75609  0.71503  1
 I  I5  1  0.83291  0.25883  0.94897  1
 I  I6  1  0.16709  0.75883  0.55103  1
 I  I7  1  0.16709  0.74117  0.05103  1
 I  I8  1  0.83291  0.24117  0.44897  1
 I  I9  1  0.50064  0.76572  0.87906  1
 I  I10  1  0.49936  0.26572  0.62094  1
 I  I11  1  0.49936  0.23428  0.12094  1
 I  I12  1  0.50064  0.73428  0.37906  1
