CIF file written using JARVIS-Tools package.
data_YbNaP2S6
_symmetry_space_group_name_H-M  'P-1'
_cell_length_a       7.18644
_cell_length_b       7.2254
_cell_length_c       9.43996
_cell_angle_alpha    87.9853
_cell_angle_beta     76.3543
_cell_angle_gamma    88.7769

_symmetry_Int_Tables_number  2
_chemical_formula_structural  YbNaP2S6
_chemical_formula_sum  Yb2Na2P4S2
_cell_volume  475.9951341929541
_cell_formula_units_Z  2
loop_
  _symmetry_equiv_pos_site_id
 _symmetry_equiv_pos_as_xyz
 1  'x, y, z'
loop_
 _atom_site_type_symbol
 _atom_site_label
 _atom_site_symmetry_multiplicity
 _atom_site_fract_x
 _atom_site_fract_y
 _atom_site_fract_z
 _atom_site_fract_occupancy
 Na  Na1  1  0.51701  0.38211  0.31347  1
 Na  Na2  1  0.48299  0.61789  0.68653  1
 P  P1  1  0.71991  0.02137  0.07214  1
 P  P2  1  0.28009  0.97863  0.92786  1
 P  P3  1  0.05574  0.60808  0.56235  1
 P  P4  1  0.94426  0.39192  0.43765  1
 S  S1  1  0.30238  0.70273  0.42523  1
 S  S2  1  0.65570  0.00430  0.28651  1
 S  S3  1  0.14351  0.18271  0.04273  1
 S  S4  1  0.90756  0.51380  0.24953  1
 S  S5  1  0.34430  0.99570  0.71349  1
 S  S6  1  0.65602  0.24815  0.97194  1
 S  S7  1  0.34398  0.75185  0.02806  1
 S  S8  1  0.15337  0.18965  0.42084  1
 S  S9  1  0.85649  0.81729  0.95727  1
 S  S10  1  0.84663  0.81035  0.57916  1
 S  S11  1  0.69762  0.29727  0.57477  1
 S  S12  1  0.09244  0.48620  0.75047  1
 Yb  Yb1  1  0.04380  0.88145  0.27418  1
 Yb  Yb2  1  0.95620  0.11855  0.72582  1
