CIF file written using JARVIS-Tools package.
data_WS2
_symmetry_space_group_name_H-M  'P-3m1'
_cell_length_a       3.19356
_cell_length_b       3.19356
_cell_length_c       33.4818
_cell_angle_alpha    90.0007
_cell_angle_beta     90.001
_cell_angle_gamma    60.0001

_symmetry_Int_Tables_number  164
_chemical_formula_structural  WS2
_chemical_formula_sum  W4S8
_cell_volume  295.7270373515178
_cell_formula_units_Z  4
loop_
  _symmetry_equiv_pos_site_id
 _symmetry_equiv_pos_as_xyz
 1  'x, y, z'
loop_
 _atom_site_type_symbol
 _atom_site_label
 _atom_site_symmetry_multiplicity
 _atom_site_fract_x
 _atom_site_fract_y
 _atom_site_fract_z
 _atom_site_fract_occupancy
 S  S1  1  0.66661  0.66661  0.04201  1
 S  S2  1  0.66667  0.66668  0.41633  1
 S  S3  1  0.33331  0.33332  0.22924  1
 S  S4  1  0.33339  0.33338  0.60350  1
 S  S5  1  0.66663  0.66664  0.13607  1
 S  S6  1  0.66668  0.66667  0.51042  1
 S  S7  1  0.33334  0.33333  0.32333  1
 S  S8  1  0.33337  0.33337  0.69756  1
 W  W1  1  0.66666  0.66666  0.27629  1
 W  W2  1  0.66671  0.66671  0.65055  1
 W  W3  1  0.33329  0.33329  0.08902  1
 W  W4  1  0.33334  0.33334  0.46338  1
