CIF file written using JARVIS-Tools package.
data_Na3CoO3
_symmetry_space_group_name_H-M  'Cmcm'
_cell_length_a       6.4929
_cell_length_b       6.4929
_cell_length_c       4.74503
_cell_angle_alpha    90
_cell_angle_beta     90
_cell_angle_gamma    80.2221

_symmetry_Int_Tables_number  63
_chemical_formula_structural  Na3CoO3
_chemical_formula_sum  Na6Co2O6
_cell_volume  197.13392605802207
_cell_formula_units_Z  2
loop_
  _symmetry_equiv_pos_site_id
 _symmetry_equiv_pos_as_xyz
 1  'x, y, z'
loop_
 _atom_site_type_symbol
 _atom_site_label
 _atom_site_symmetry_multiplicity
 _atom_site_fract_x
 _atom_site_fract_y
 _atom_site_fract_z
 _atom_site_fract_occupancy
 Co  Co1  1  0.18975  0.18975  0.25000  1
 Co  Co2  1  0.81025  0.81025  0.75000  1
 Na  Na1  1  0.11108  0.65989  0.25000  1
 Na  Na2  1  0.34011  0.88892  0.75000  1
 Na  Na3  1  0.60293  0.60293  0.25000  1
 Na  Na4  1  0.39707  0.39707  0.75000  1
 Na  Na5  1  0.65989  0.11108  0.25000  1
 Na  Na6  1  0.88892  0.34011  0.75000  1
 O  O1  1  0.07103  0.67870  0.75000  1
 O  O2  1  0.32130  0.92897  0.25000  1
 O  O3  1  0.37047  0.37047  0.25000  1
 O  O4  1  0.62953  0.62953  0.75000  1
 O  O5  1  0.92897  0.32130  0.25000  1
 O  O6  1  0.67870  0.07103  0.75000  1
