CIF file written using JARVIS-Tools package.
data_RbUTe3Au
_symmetry_space_group_name_H-M  'Cmcm'
_cell_length_a       4.40135
_cell_length_b       8.32259
_cell_length_c       11.3828
_cell_angle_alpha    90
_cell_angle_beta     90
_cell_angle_gamma    74.6674

_symmetry_Int_Tables_number  63
_chemical_formula_structural  RbUTe3Au
_chemical_formula_sum  Rb2U2Te6Au2
_cell_volume  402.11709312808495
_cell_formula_units_Z  2
loop_
  _symmetry_equiv_pos_site_id
 _symmetry_equiv_pos_as_xyz
 1  'x, y, z'
loop_
 _atom_site_type_symbol
 _atom_site_label
 _atom_site_symmetry_multiplicity
 _atom_site_fract_x
 _atom_site_fract_y
 _atom_site_fract_z
 _atom_site_fract_occupancy
 Au  Au1  1  0.53894  0.92212  0.25000  1
 Au  Au2  1  0.46106  0.07788  0.75000  1
 Rb  Rb1  1  0.24514  0.50971  0.25000  1
 Rb  Rb2  1  0.75486  0.49029  0.75000  1
 Te  Te1  1  0.63146  0.73707  0.04532  1
 Te  Te2  1  0.92796  0.14408  0.25000  1
 Te  Te3  1  0.63146  0.73707  0.45468  1
 Te  Te4  1  0.36853  0.26293  0.54532  1
 Te  Te5  1  0.07204  0.85592  0.75000  1
 Te  Te6  1  0.36853  0.26293  0.95468  1
 U  U1  1  0.00000  0.00000  0.00000  1
 U  U2  1  0.00000  0.00000  0.50000  1
