CIF file written using JARVIS-Tools package.
data_CO3
_symmetry_space_group_name_H-M  'P4/mmm'
_cell_length_a       4.41128
_cell_length_b       4.41128
_cell_length_c       4.41128
_cell_angle_alpha    72.421
_cell_angle_beta     69.5745
_cell_angle_gamma    110.425

_symmetry_Int_Tables_number  123
_chemical_formula_structural  CO3
_chemical_formula_sum  C2O6
_cell_volume  66.02638278944156
_cell_formula_units_Z  2
loop_
  _symmetry_equiv_pos_site_id
 _symmetry_equiv_pos_as_xyz
 1  'x, y, z'
loop_
 _atom_site_type_symbol
 _atom_site_label
 _atom_site_symmetry_multiplicity
 _atom_site_fract_x
 _atom_site_fract_y
 _atom_site_fract_z
 _atom_site_fract_occupancy
 C  C1  1  -0.00000  0.75000  0.25000  1
 C  C2  1  -0.00000  0.25000  0.75000  1
 O  O1  1  0.50000  -0.00000  0.50000  1
 O  O2  1  0.50000  0.50000  0.00000  1
 O  O3  1  0.50000  0.24998  0.74998  1
 O  O4  1  0.50000  0.75002  0.25002  1
 O  O5  1  0.99996  0.74998  0.75002  1
 O  O6  1  0.00004  0.25002  0.24998  1
