CIF file written using JARVIS-Tools package.
data_VOF3
_symmetry_space_group_name_H-M  'P1'
_cell_length_a       4.90809
_cell_length_b       5.652
_cell_length_c       9.35537
_cell_angle_alpha    92.6285
_cell_angle_beta     80.5531
_cell_angle_gamma    91.6941

_symmetry_Int_Tables_number  1
_chemical_formula_structural  VOF3
_chemical_formula_sum  V4O4F2
_cell_volume  255.67054860056106
_cell_formula_units_Z  4
loop_
  _symmetry_equiv_pos_site_id
 _symmetry_equiv_pos_as_xyz
 1  'x, y, z'
loop_
 _atom_site_type_symbol
 _atom_site_label
 _atom_site_symmetry_multiplicity
 _atom_site_fract_x
 _atom_site_fract_y
 _atom_site_fract_z
 _atom_site_fract_occupancy
 F  F1  1  0.30368  0.02127  0.88240  1
 F  F2  1  0.92463  0.49685  0.34570  1
 F  F3  1  0.12692  0.25618  0.12373  1
 F  F4  1  0.80358  -0.01719  0.38305  1
 F  F5  1  0.67270  0.02010  0.09421  1
 F  F6  1  0.86000  0.28379  0.86634  1
 F  F7  1  0.55661  0.50820  0.13476  1
 F  F8  1  0.41669  0.51172  0.83878  1
 F  F9  1  0.38064  0.72475  0.38358  1
 F  F10  1  0.04795  0.50403  0.63072  1
 F  F11  1  0.17443  -0.01332  0.59278  1
 F  F12  1  0.62021  0.23013  0.61878  1
 O  O1  1  0.12152  0.77752  0.12039  1
 O  O2  1  0.37086  0.24929  0.36556  1
 O  O3  1  0.63053  0.76086  0.63018  1
 O  O4  1  0.87794  0.75273  0.87852  1
 V  V1  1  0.02576  0.97815  0.02562  1
 V  V2  1  0.27869  0.46057  0.27711  1
 V  V3  1  0.53152  0.95998  0.53020  1
 V  V4  1  0.77514  0.53441  0.77760  1
