CIF file written using JARVIS-Tools package.
data_NiAg3
_symmetry_space_group_name_H-M  'I4/mmm'
_cell_length_a       4.8559
_cell_length_b       4.8559
_cell_length_c       4.8559
_cell_angle_alpha    131.251
_cell_angle_beta     131.251
_cell_angle_gamma    71.4148

_symmetry_Int_Tables_number  139
_chemical_formula_structural  NiAg3
_chemical_formula_sum  NiAg3
_cell_volume  63.34332489790846
_cell_formula_units_Z  1
loop_
  _symmetry_equiv_pos_site_id
 _symmetry_equiv_pos_as_xyz
 1  'x, y, z'
loop_
 _atom_site_type_symbol
 _atom_site_label
 _atom_site_symmetry_multiplicity
 _atom_site_fract_x
 _atom_site_fract_y
 _atom_site_fract_z
 _atom_site_fract_occupancy
 Ag  Ag1  1  0.25000  0.75000  0.50000  1
 Ag  Ag2  1  0.75000  0.25000  0.50000  1
 Ag  Ag3  1  0.50000  0.50000  0.00000  1
 Ni  Ni1  1  0.00000  0.00000  0.00000  1
