CIF file written using JARVIS-Tools package.
data_PrTm3
_symmetry_space_group_name_H-M  'P6_3/mmc'
_cell_length_a       7.14629
_cell_length_b       5.60951
_cell_length_c       7.14636
_cell_angle_alpha    90
_cell_angle_beta     119.999
_cell_angle_gamma    90

_symmetry_Int_Tables_number  194
_chemical_formula_structural  PrTm3
_chemical_formula_sum  Pr2Tm6
_cell_volume  248.0982447759078
_cell_formula_units_Z  2
loop_
  _symmetry_equiv_pos_site_id
 _symmetry_equiv_pos_as_xyz
 1  'x, y, z'
loop_
 _atom_site_type_symbol
 _atom_site_label
 _atom_site_symmetry_multiplicity
 _atom_site_fract_x
 _atom_site_fract_y
 _atom_site_fract_z
 _atom_site_fract_occupancy
 Pr  Pr1  1  0.66667  0.25000  0.33334  1
 Pr  Pr2  1  0.33333  0.75000  0.66666  1
 Tm  Tm1  1  0.67161  0.25000  0.83581  1
 Tm  Tm2  1  0.83581  0.75000  0.16419  1
 Tm  Tm3  1  0.83580  0.75000  0.67160  1
 Tm  Tm4  1  0.16420  0.25000  0.32840  1
 Tm  Tm5  1  0.16419  0.25000  0.83581  1
 Tm  Tm6  1  0.32839  0.75000  0.16419  1
