CIF file written using JARVIS-Tools package.
data_Co2MoS4
_symmetry_space_group_name_H-M  'I-4'
_cell_length_a       5.00788
_cell_length_b       5.00788
_cell_length_c       6.19936
_cell_angle_alpha    113.822
_cell_angle_beta     113.822
_cell_angle_gamma    90

_symmetry_Int_Tables_number  82
_chemical_formula_structural  Co2MoS4
_chemical_formula_sum  Co2MoS4
_cell_volume  127.61330757863219
_cell_formula_units_Z  1
loop_
  _symmetry_equiv_pos_site_id
 _symmetry_equiv_pos_as_xyz
 1  'x, y, z'
loop_
 _atom_site_type_symbol
 _atom_site_label
 _atom_site_symmetry_multiplicity
 _atom_site_fract_x
 _atom_site_fract_y
 _atom_site_fract_z
 _atom_site_fract_occupancy
 Co  Co1  1  0.25000  0.75000  0.50000  1
 Co  Co2  1  0.00000  0.00000  0.00000  1
 Mo  Mo1  1  0.75000  0.25000  0.50000  1
 S  S1  1  0.87795  0.85949  0.23954  1
 S  S2  1  0.61994  0.12205  0.76046  1
 S  S3  1  0.14051  0.63841  0.76046  1
 S  S4  1  0.36159  0.38006  0.23954  1
