CIF file written using JARVIS-Tools package.
data_Te2W2SeS
_symmetry_space_group_name_H-M  'P3m1'
_cell_length_a       3.40461
_cell_length_b       3.40476
_cell_length_c       35.3584
_cell_angle_alpha    90.0017
_cell_angle_beta     89.9997
_cell_angle_gamma    119.999

_symmetry_Int_Tables_number  156
_chemical_formula_structural  Te2W2SeS
_chemical_formula_sum  Te4W4Se2S2
_cell_volume  354.9630012603876
_cell_formula_units_Z  2
loop_
  _symmetry_equiv_pos_site_id
 _symmetry_equiv_pos_as_xyz
 1  'x, y, z'
loop_
 _atom_site_type_symbol
 _atom_site_label
 _atom_site_symmetry_multiplicity
 _atom_site_fract_x
 _atom_site_fract_y
 _atom_site_fract_z
 _atom_site_fract_occupancy
 S  S1  1  0.66668  0.33337  0.42937  1
 S  S2  1  0.66665  0.33327  0.51459  1
 Se  Se1  1  0.66659  0.33315  0.04041  1
 Se  Se2  1  0.66668  0.33338  0.13397  1
 Te  Te1  1  0.33328  0.66658  0.33619  1
 Te  Te2  1  0.33344  0.66687  0.71414  1
 Te  Te3  1  0.33335  0.66667  0.22957  1
 Te  Te4  1  0.33325  0.66651  0.60758  1
 W  W1  1  0.33332  0.66664  0.08715  1
 W  W2  1  0.33336  0.66673  0.47198  1
 W  W3  1  0.66669  0.33337  0.28286  1
 W  W4  1  0.66672  0.33345  0.66092  1
