CIF file written using JARVIS-Tools package.
data_AlSb
_symmetry_space_group_name_H-M  'Cmcm'
_cell_length_a       4.34309
_cell_length_b       4.34309
_cell_length_c       5.34238
_cell_angle_alpha    90.0065
_cell_angle_beta     90.0065
_cell_angle_gamma    80.5988

_symmetry_Int_Tables_number  63
_chemical_formula_structural  AlSb
_chemical_formula_sum  Al2Sb2
_cell_volume  99.41673787184519
_cell_formula_units_Z  2
loop_
  _symmetry_equiv_pos_site_id
 _symmetry_equiv_pos_as_xyz
 1  'x, y, z'
loop_
 _atom_site_type_symbol
 _atom_site_label
 _atom_site_symmetry_multiplicity
 _atom_site_fract_x
 _atom_site_fract_y
 _atom_site_fract_z
 _atom_site_fract_occupancy
 Al  Al1  1  0.37140  0.37140  0.75002  1
 Al  Al2  1  0.62860  0.62860  0.24998  1
 Sb  Sb1  1  0.79346  0.79346  0.75000  1
 Sb  Sb2  1  0.20654  0.20654  0.25000  1
