CIF file written using JARVIS-Tools package.
data_Na2H6Ir
_symmetry_space_group_name_H-M  'Fm-3m'
_cell_length_a       5.13334
_cell_length_b       5.13334
_cell_length_c       5.13334
_cell_angle_alpha    60
_cell_angle_beta     60
_cell_angle_gamma    60

_symmetry_Int_Tables_number  225
_chemical_formula_structural  Na2H6Ir
_chemical_formula_sum  Na2H6Ir
_cell_volume  95.6498766502872
_cell_formula_units_Z  1
loop_
  _symmetry_equiv_pos_site_id
 _symmetry_equiv_pos_as_xyz
 1  'x, y, z'
loop_
 _atom_site_type_symbol
 _atom_site_label
 _atom_site_symmetry_multiplicity
 _atom_site_fract_x
 _atom_site_fract_y
 _atom_site_fract_z
 _atom_site_fract_occupancy
 H  H1  1  0.23316  0.76684  0.76684  1
 H  H2  1  0.23316  0.23316  0.76684  1
 H  H3  1  0.23316  0.76684  0.23316  1
 H  H4  1  0.76684  0.23316  0.23316  1
 H  H5  1  0.76684  0.76684  0.23316  1
 H  H6  1  0.76684  0.23316  0.76684  1
 Ir  Ir1  1  0.00000  0.00000  0.00000  1
 Na  Na1  1  0.75000  0.75000  0.75000  1
 Na  Na2  1  0.25000  0.25000  0.25000  1
