CIF file written using JARVIS-Tools package.
data_MoO3
_symmetry_space_group_name_H-M  'P2_1/m'
_cell_length_a       3.71167
_cell_length_b       3.9217
_cell_length_c       7.22336
_cell_angle_alpha    103.417
_cell_angle_beta     90
_cell_angle_gamma    90

_symmetry_Int_Tables_number  11
_chemical_formula_structural  MoO3
_chemical_formula_sum  Mo2O6
_cell_volume  102.27424601783257
_cell_formula_units_Z  2
loop_
  _symmetry_equiv_pos_site_id
 _symmetry_equiv_pos_as_xyz
 1  'x, y, z'
loop_
 _atom_site_type_symbol
 _atom_site_label
 _atom_site_symmetry_multiplicity
 _atom_site_fract_x
 _atom_site_fract_y
 _atom_site_fract_z
 _atom_site_fract_occupancy
 Mo  Mo1  1  0.25000  0.33730  0.29233  1
 Mo  Mo2  1  0.75000  0.66270  0.70767  1
 O  O1  1  0.25000  0.90613  0.32397  1
 O  O2  1  0.75000  0.09387  0.67603  1
 O  O3  1  0.75000  0.44360  0.36793  1
 O  O4  1  0.25000  0.55640  0.63207  1
 O  O5  1  0.25000  0.27496  0.05445  1
 O  O6  1  0.75000  0.72504  0.94555  1
