CIF file written using JARVIS-Tools package.
data_ZrSiO4
_symmetry_space_group_name_H-M  'P2/c'
_cell_length_a       4.70162
_cell_length_b       5.15127
_cell_length_c       4.92408
_cell_angle_alpha    90
_cell_angle_beta     98.4941
_cell_angle_gamma    90

_symmetry_Int_Tables_number  13
_chemical_formula_structural  ZrSiO4
_chemical_formula_sum  Zr2Si2O8
_cell_volume  117.94975296391915
_cell_formula_units_Z  2
loop_
  _symmetry_equiv_pos_site_id
 _symmetry_equiv_pos_as_xyz
 1  'x, y, z'
loop_
 _atom_site_type_symbol
 _atom_site_label
 _atom_site_symmetry_multiplicity
 _atom_site_fract_x
 _atom_site_fract_y
 _atom_site_fract_z
 _atom_site_fract_occupancy
 O  O1  1  0.24851  0.60543  0.39131  1
 O  O2  1  0.75149  0.60543  0.10869  1
 O  O3  1  0.75149  0.39457  0.60869  1
 O  O4  1  0.24851  0.39457  0.89131  1
 O  O5  1  0.21906  0.92060  0.98344  1
 O  O6  1  0.78094  0.92060  0.51656  1
 O  O7  1  0.78094  0.07940  0.01656  1
 O  O8  1  0.21906  0.07940  0.48344  1
 Si  Si1  1  -0.00000  0.83273  0.25000  1
 Si  Si2  1  -0.00000  0.16727  0.75000  1
 Zr  Zr1  1  0.50000  0.72146  0.75000  1
 Zr  Zr2  1  0.50000  0.27854  0.25000  1
