CIF file written using JARVIS-Tools package.
data_SiCCl3F3
_symmetry_space_group_name_H-M  'C2/m'
_cell_length_a       6.08656
_cell_length_b       7.40626
_cell_length_c       7.40625
_cell_angle_alpha    76.3251
_cell_angle_beta     87.8922
_cell_angle_gamma    87.8922

_symmetry_Int_Tables_number  12
_chemical_formula_structural  SiCCl3F3
_chemical_formula_sum  Si2C2Cl6F6
_cell_volume  324.04456544761786
_cell_formula_units_Z  2
loop_
  _symmetry_equiv_pos_site_id
 _symmetry_equiv_pos_as_xyz
 1  'x, y, z'
loop_
 _atom_site_type_symbol
 _atom_site_label
 _atom_site_symmetry_multiplicity
 _atom_site_fract_x
 _atom_site_fract_y
 _atom_site_fract_z
 _atom_site_fract_occupancy
 C  C1  1  0.24982  0.35322  0.35322  1
 C  C2  1  0.75018  0.64678  0.64678  1
 Cl  Cl1  1  0.34421  0.83238  0.83238  1
 Cl  Cl2  1  0.19127  0.30730  0.94002  1
 Cl  Cl3  1  0.80873  0.69270  0.05998  1
 Cl  Cl4  1  0.80873  0.05998  0.69270  1
 Cl  Cl5  1  0.65579  0.16762  0.16762  1
 Cl  Cl6  1  0.19127  0.94002  0.30730  1
 F  F1  1  0.66902  0.47362  0.71395  1
 F  F2  1  0.66902  0.71395  0.47362  1
 F  F3  1  0.02635  0.37477  0.37477  1
 F  F4  1  0.33098  0.28605  0.52638  1
 F  F5  1  0.97365  0.62523  0.62523  1
 F  F6  1  0.33098  0.52638  0.28605  1
 Si  Si1  1  0.67712  0.81061  0.81061  1
 Si  Si2  1  0.32288  0.18939  0.18939  1
