CIF file written using JARVIS-Tools package.
data_LiAlB4
_symmetry_space_group_name_H-M  'Pbam'
_cell_length_a       3.33953
_cell_length_b       5.89067
_cell_length_c       11.3036
_cell_angle_alpha    90
_cell_angle_beta     90
_cell_angle_gamma    90

_symmetry_Int_Tables_number  55
_chemical_formula_structural  LiAlB4
_chemical_formula_sum  Li4Al4B6
_cell_volume  222.3659677989725
_cell_formula_units_Z  4
loop_
  _symmetry_equiv_pos_site_id
 _symmetry_equiv_pos_as_xyz
 1  'x, y, z'
loop_
 _atom_site_type_symbol
 _atom_site_label
 _atom_site_symmetry_multiplicity
 _atom_site_fract_x
 _atom_site_fract_y
 _atom_site_fract_z
 _atom_site_fract_occupancy
 Al  Al1  1  0.00000  0.85673  0.09290  1
 Al  Al2  1  0.00000  0.14327  0.90710  1
 Al  Al3  1  0.00000  0.64327  0.59290  1
 Al  Al4  1  0.00000  0.35673  0.40710  1
 B  B1  1  0.50000  0.86820  0.52848  1
 B  B2  1  0.50000  0.01878  0.19682  1
 B  B3  1  0.50000  0.98122  0.80318  1
 B  B4  1  0.50000  0.48122  0.69682  1
 B  B5  1  0.50000  0.80221  0.68636  1
 B  B6  1  0.50000  0.11636  0.05013  1
 B  B7  1  0.50000  0.88364  0.94987  1
 B  B8  1  0.50000  0.51878  0.30318  1
 B  B9  1  0.50000  0.61636  0.44987  1
 B  B10  1  0.50000  0.19779  0.31364  1
 B  B11  1  0.50000  0.36820  0.97152  1
 B  B12  1  0.50000  0.38364  0.55013  1
 B  B13  1  0.50000  0.13180  0.47152  1
 B  B14  1  0.50000  0.69779  0.18636  1
 B  B15  1  0.50000  0.30221  0.81364  1
 B  B16  1  0.50000  0.63180  0.02848  1
 Li  Li1  1  0.00000  0.87237  0.35039  1
 Li  Li2  1  0.00000  0.12763  0.64961  1
 Li  Li3  1  0.00000  0.62763  0.85039  1
 Li  Li4  1  0.00000  0.37237  0.14961  1
