CIF file written using JARVIS-Tools package.
data_TcXeO4F5
_symmetry_space_group_name_H-M  'Cmc2_1'
_cell_length_a       5.24344
_cell_length_b       7.97508
_cell_length_c       9.05265
_cell_angle_alpha    116.135
_cell_angle_beta     90
_cell_angle_gamma    90

_symmetry_Int_Tables_number  36
_chemical_formula_structural  TcXeO4F5
_chemical_formula_sum  Tc2Xe2O8F0
_cell_volume  339.8506223141471
_cell_formula_units_Z  2
loop_
  _symmetry_equiv_pos_site_id
 _symmetry_equiv_pos_as_xyz
 1  'x, y, z'
loop_
 _atom_site_type_symbol
 _atom_site_label
 _atom_site_symmetry_multiplicity
 _atom_site_fract_x
 _atom_site_fract_y
 _atom_site_fract_z
 _atom_site_fract_occupancy
 F  F1  1  0.61882  0.80929  0.61859  1
 F  F2  1  0.11483  0.34359  0.14398  1
 F  F3  1  0.61483  0.65641  0.85602  1
 F  F4  1  0.41762  0.51921  0.03842  1
 F  F5  1  0.61483  0.19961  0.85602  1
 F  F6  1  0.11882  0.19071  0.38141  1
 F  F7  1  0.25848  0.96163  0.92326  1
 F  F8  1  0.11483  0.80039  0.14398  1
 F  F9  1  0.75848  0.03837  0.07674  1
 F  F10  1  0.91762  0.48079  0.96158  1
 O  O1  1  0.79039  0.32200  0.64401  1
 O  O2  1  0.29039  0.67800  0.35599  1
 O  O3  1  0.80972  0.64152  0.28303  1
 O  O4  1  0.57411  0.98519  0.35192  1
 O  O5  1  0.07411  0.01481  0.64808  1
 O  O6  1  0.30972  0.35848  0.71697  1
 O  O7  1  0.57411  0.36673  0.35192  1
 O  O8  1  0.07411  0.63327  0.64808  1
 Tc  Tc1  1  0.59555  0.40242  0.80484  1
 Tc  Tc2  1  0.09555  0.59758  0.19516  1
 Xe  Xe1  1  0.95050  0.87725  0.75449  1
 Xe  Xe2  1  0.45050  0.12275  0.24551  1
