CIF file written using JARVIS-Tools package.
data_CrF2
_symmetry_space_group_name_H-M  'Pnnm'
_cell_length_a       2.58671
_cell_length_b       5.05198
_cell_length_c       4.84255
_cell_angle_alpha    90
_cell_angle_beta     90.0344
_cell_angle_gamma    90

_symmetry_Int_Tables_number  58
_chemical_formula_structural  CrF2
_chemical_formula_sum  Cr2F4
_cell_volume  63.282547214789986
_cell_formula_units_Z  2
loop_
  _symmetry_equiv_pos_site_id
 _symmetry_equiv_pos_as_xyz
 1  'x, y, z'
loop_
 _atom_site_type_symbol
 _atom_site_label
 _atom_site_symmetry_multiplicity
 _atom_site_fract_x
 _atom_site_fract_y
 _atom_site_fract_z
 _atom_site_fract_occupancy
 Cr  Cr1  1  0.50000  0.50000  0.50000  1
 Cr  Cr2  1  0.00000  0.00000  0.00000  1
 F  F1  1  0.50020  0.82383  0.26065  1
 F  F2  1  -0.00020  0.32383  0.23935  1
 F  F3  1  0.00020  0.67617  0.76065  1
 F  F4  1  0.49980  0.17617  0.73935  1
