CIF file written using JARVIS-Tools package.
data_KNO3
_symmetry_space_group_name_H-M  'P2_1/c'
_cell_length_a       4.76942
_cell_length_b       5.49581
_cell_length_c       10.3724
_cell_angle_alpha    90
_cell_angle_beta     90.1492
_cell_angle_gamma    90

_symmetry_Int_Tables_number  14
_chemical_formula_structural  KNO3
_chemical_formula_sum  K4N4O2
_cell_volume  271.87873902017947
_cell_formula_units_Z  4
loop_
  _symmetry_equiv_pos_site_id
 _symmetry_equiv_pos_as_xyz
 1  'x, y, z'
loop_
 _atom_site_type_symbol
 _atom_site_label
 _atom_site_symmetry_multiplicity
 _atom_site_fract_x
 _atom_site_fract_y
 _atom_site_fract_z
 _atom_site_fract_occupancy
 K  K1  1  0.59718  0.74958  0.37507  1
 K  K2  1  0.40282  0.24958  0.12493  1
 K  K3  1  0.40282  0.25042  0.62493  1
 K  K4  1  0.59718  0.75042  0.87507  1
 N  N1  1  -0.01048  0.24938  0.37496  1
 N  N2  1  0.01048  0.74938  0.12504  1
 N  N3  1  0.01048  0.75062  0.62504  1
 N  N4  1  -0.01048  0.25062  0.87496  1
 O  O1  1  0.12124  0.04922  0.37505  1
 O  O2  1  0.72258  0.25041  0.87460  1
 O  O3  1  0.87876  0.95078  0.62495  1
 O  O4  1  0.12124  0.45078  0.87505  1
 O  O5  1  0.87876  0.54922  0.12495  1
 O  O6  1  0.27742  0.74959  0.12540  1
 O  O7  1  0.87834  0.55068  0.62472  1
 O  O8  1  0.12166  0.05068  0.87528  1
 O  O9  1  0.12166  0.44932  0.37528  1
 O  O10  1  0.72258  0.24959  0.37460  1
 O  O11  1  0.87834  -0.05068  0.12472  1
 O  O12  1  0.27742  0.75041  0.62540  1
