CIF file written using JARVIS-Tools package.
data_NiH4C2S4N2
_symmetry_space_group_name_H-M  'P2_1/c'
_cell_length_a       7.03244
_cell_length_b       8.44883
_cell_length_c       12.7327
_cell_angle_alpha    90
_cell_angle_beta     90
_cell_angle_gamma    89.6205

_symmetry_Int_Tables_number  14
_chemical_formula_structural  NiH4C2S4N2
_chemical_formula_sum  Ni4H6C8S6N8
_cell_volume  756.5062717382515
_cell_formula_units_Z  4
loop_
  _symmetry_equiv_pos_site_id
 _symmetry_equiv_pos_as_xyz
 1  'x, y, z'
loop_
 _atom_site_type_symbol
 _atom_site_label
 _atom_site_symmetry_multiplicity
 _atom_site_fract_x
 _atom_site_fract_y
 _atom_site_fract_z
 _atom_site_fract_occupancy
 C  C1  1  0.10402  0.75413  0.23822  1
 C  C2  1  0.89598  0.24587  0.76178  1
 C  C3  1  0.30827  0.19913  0.52504  1
 C  C4  1  0.69173  0.80087  0.47496  1
 C  C5  1  0.80827  0.69913  0.97496  1
 C  C6  1  0.39598  0.74587  0.73822  1
 C  C7  1  0.19173  0.30087  0.02504  1
 C  C8  1  0.60402  0.25413  0.26178  1
 H  H1  1  0.36622  0.98431  0.76388  1
 H  H2  1  0.13378  0.51569  0.26388  1
 H  H3  1  0.31712  0.95712  0.51242  1
 H  H4  1  0.69035  0.55312  0.08726  1
 H  H5  1  0.81712  0.45712  0.98758  1
 H  H6  1  0.48581  0.11665  0.14665  1
 H  H7  1  0.80965  0.94688  0.58726  1
 H  H8  1  0.18288  0.54288  0.01242  1
 H  H9  1  0.63378  0.01569  0.23612  1
 H  H10  1  0.86622  0.48431  0.73612  1
 H  H11  1  0.68288  0.04288  0.48758  1
 H  H12  1  0.19035  0.05312  0.41274  1
 H  H13  1  0.01419  0.38335  0.64665  1
 H  H14  1  0.30965  0.44688  0.91274  1
 H  H15  1  0.51419  0.88335  0.85335  1
 H  H16  1  0.98581  0.61665  0.35335  1
 N  N1  1  0.22527  0.43801  0.97849  1
 N  N2  1  0.92457  0.37944  0.71056  1
 N  N3  1  0.07543  0.62056  0.28944  1
 N  N4  1  0.27473  0.06199  0.47849  1
 N  N5  1  0.42457  0.87944  0.78944  1
 N  N6  1  0.57543  0.12056  0.21056  1
 N  N7  1  0.77473  0.56199  0.02151  1
 N  N8  1  0.72527  0.93801  0.52151  1
 Ni  Ni1  1  0.86122  0.97549  0.87339  1
 Ni  Ni2  1  0.63878  0.52451  0.37339  1
 Ni  Ni3  1  0.13878  0.02451  0.12661  1
 Ni  Ni4  1  0.36122  0.47549  0.62661  1
 S  S1  1  0.28258  0.12150  0.98594  1
 S  S2  1  0.78258  0.62150  0.51406  1
 S  S3  1  0.55152  0.77592  0.36624  1
 S  S4  1  0.75888  0.22459  0.87225  1
 S  S5  1  0.50668  0.43450  0.22822  1
 S  S6  1  0.05152  0.27592  0.13376  1
 S  S7  1  0.00668  0.93450  0.27178  1
 S  S8  1  0.71742  0.87850  0.01406  1
 S  S9  1  0.21742  0.37850  0.48594  1
 S  S10  1  0.25888  0.72459  0.62775  1
 S  S11  1  0.94848  0.72408  0.86624  1
 S  S12  1  0.99332  0.06550  0.72822  1
 S  S13  1  0.49332  0.56550  0.77178  1
 S  S14  1  0.44848  0.22408  0.63376  1
 S  S15  1  0.74112  0.27541  0.37225  1
 S  S16  1  0.24112  0.77541  0.12775  1
