CIF file written using JARVIS-Tools package.
data_Ba2CuH6
_symmetry_space_group_name_H-M  'Cmce'
_cell_length_a       7.92723
_cell_length_b       7.92723
_cell_length_c       5.81082
_cell_angle_alpha    90
_cell_angle_beta     90
_cell_angle_gamma    136.996

_symmetry_Int_Tables_number  64
_chemical_formula_structural  Ba2CuH6
_chemical_formula_sum  Ba4Cu2H2
_cell_volume  249.0567199771719
_cell_formula_units_Z  2
loop_
  _symmetry_equiv_pos_site_id
 _symmetry_equiv_pos_as_xyz
 1  'x, y, z'
loop_
 _atom_site_type_symbol
 _atom_site_label
 _atom_site_symmetry_multiplicity
 _atom_site_fract_x
 _atom_site_fract_y
 _atom_site_fract_z
 _atom_site_fract_occupancy
 Ba  Ba1  1  0.14148  0.85852  0.50000  1
 Ba  Ba2  1  0.64148  0.35852  0.00000  1
 Ba  Ba3  1  0.85852  0.14148  0.50000  1
 Ba  Ba4  1  0.35852  0.64148  0.00000  1
 Cu  Cu1  1  0.50000  0.50000  0.50000  1
 Cu  Cu2  1  0.00000  0.00000  0.00000  1
 H  H1  1  0.00020  0.50020  0.75000  1
 H  H2  1  0.49980  0.99980  0.25000  1
 H  H3  1  0.21012  0.21012  0.20997  1
 H  H4  1  0.50020  0.00020  0.75000  1
 H  H5  1  0.99980  0.49980  0.25000  1
 H  H6  1  0.10875  0.89125  0.00000  1
 H  H7  1  0.60875  0.39125  0.50000  1
 H  H8  1  0.39125  0.60875  0.50000  1
 H  H9  1  0.28988  0.28988  0.70997  1
 H  H10  1  0.71012  0.71012  0.29003  1
 H  H11  1  0.89125  0.10875  0.00000  1
 H  H12  1  0.78988  0.78988  0.79003  1
