CIF file written using JARVIS-Tools package.
data_K2CuCl2F2
_symmetry_space_group_name_H-M  'Cmce'
_cell_length_a       6.1826
_cell_length_b       6.18281
_cell_length_c       7.928
_cell_angle_alpha    90
_cell_angle_beta     112.95
_cell_angle_gamma    90

_symmetry_Int_Tables_number  64
_chemical_formula_structural  K2CuCl2F2
_chemical_formula_sum  K4Cu2Cl4F4
_cell_volume  279.0670160154943
_cell_formula_units_Z  2
loop_
  _symmetry_equiv_pos_site_id
 _symmetry_equiv_pos_as_xyz
 1  'x, y, z'
loop_
 _atom_site_type_symbol
 _atom_site_label
 _atom_site_symmetry_multiplicity
 _atom_site_fract_x
 _atom_site_fract_y
 _atom_site_fract_z
 _atom_site_fract_occupancy
 Cl  Cl1  1  0.16003  0.00000  0.32006  1
 Cl  Cl2  1  0.83997  0.00000  0.67994  1
 Cl  Cl3  1  0.66003  0.50000  0.32006  1
 Cl  Cl4  1  0.33997  0.50000  0.67994  1
 Cu  Cu1  1  0.00000  0.00000  0.00000  1
 Cu  Cu2  1  0.50000  0.50000  0.00000  1
 F  F1  1  0.77832  0.22169  -0.00000  1
 F  F2  1  0.22168  0.77831  0.00000  1
 F  F3  1  0.27832  0.27831  -0.00000  1
 F  F4  1  0.72168  0.72169  0.00000  1
 K  K1  1  0.12227  0.50000  0.24454  1
 K  K2  1  0.62227  0.00000  0.24454  1
 K  K3  1  0.87773  0.50000  0.75546  1
 K  K4  1  0.37773  0.00000  0.75546  1
