CIF file written using JARVIS-Tools package.
data_Yb2Co2O5
_symmetry_space_group_name_H-M  'P4/mmm'
_cell_length_a       3.69114
_cell_length_b       3.69114
_cell_length_c       7.00555
_cell_angle_alpha    90
_cell_angle_beta     90
_cell_angle_gamma    90

_symmetry_Int_Tables_number  123
_chemical_formula_structural  Yb2Co2O5
_chemical_formula_sum  Yb2Co2O5
_cell_volume  95.44716848612134
_cell_formula_units_Z  1
loop_
  _symmetry_equiv_pos_site_id
 _symmetry_equiv_pos_as_xyz
 1  'x, y, z'
loop_
 _atom_site_type_symbol
 _atom_site_label
 _atom_site_symmetry_multiplicity
 _atom_site_fract_x
 _atom_site_fract_y
 _atom_site_fract_z
 _atom_site_fract_occupancy
 Co  Co1  1  0.50000  0.50000  0.23166  1
 Co  Co2  1  0.50000  0.50000  0.76833  1
 O  O1  1  0.50000  0.00000  0.21197  1
 O  O2  1  0.50000  0.00000  0.78811  1
 O  O3  1  0.00000  0.50000  0.21197  1
 O  O4  1  0.00000  0.50000  0.78811  1
 O  O5  1  0.50000  0.50000  0.50001  1
 Yb  Yb1  1  0.00000  0.00000  0.99999  1
 Yb  Yb2  1  0.00000  0.00000  0.49984  1
