CIF file written using JARVIS-Tools package.
data_SmB4Rh4
_symmetry_space_group_name_H-M  'P4_2/nmc'
_cell_length_a       5.35048
_cell_length_b       5.35048
_cell_length_c       7.52316
_cell_angle_alpha    90
_cell_angle_beta     90
_cell_angle_gamma    90

_symmetry_Int_Tables_number  137
_chemical_formula_structural  SmB4Rh4
_chemical_formula_sum  Sm2B8Rh8
_cell_volume  215.3700302181777
_cell_formula_units_Z  2
loop_
  _symmetry_equiv_pos_site_id
 _symmetry_equiv_pos_as_xyz
 1  'x, y, z'
loop_
 _atom_site_type_symbol
 _atom_site_label
 _atom_site_symmetry_multiplicity
 _atom_site_fract_x
 _atom_site_fract_y
 _atom_site_fract_z
 _atom_site_fract_occupancy
 B  B1  1  0.50000  0.83236  0.34982  1
 B  B2  1  0.00000  0.66764  0.15018  1
 B  B3  1  0.66764  0.00000  0.84982  1
 B  B4  1  0.33236  0.00000  0.84982  1
 B  B5  1  0.00000  0.33236  0.15018  1
 B  B6  1  0.83236  0.50000  0.65018  1
 B  B7  1  0.50000  0.16764  0.34982  1
 B  B8  1  0.16764  0.50000  0.65018  1
 Rh  Rh1  1  0.00000  0.75155  0.85587  1
 Rh  Rh2  1  0.50000  0.25155  0.64413  1
 Rh  Rh3  1  0.50000  0.74845  0.64413  1
 Rh  Rh4  1  0.74845  0.50000  0.35587  1
 Rh  Rh5  1  0.75155  0.00000  0.14413  1
 Rh  Rh6  1  0.24845  0.00000  0.14413  1
 Rh  Rh7  1  0.00000  0.24845  0.85587  1
 Rh  Rh8  1  0.25155  0.50000  0.35587  1
 Sm  Sm1  1  0.50000  0.50000  0.00000  1
 Sm  Sm2  1  0.00000  0.00000  0.50000  1
