CIF file written using JARVIS-Tools package.
data_Hg3Ir
_symmetry_space_group_name_H-M  'I4/mmm'
_cell_length_a       5.46132
_cell_length_b       5.46132
_cell_length_c       5.46132
_cell_angle_alpha    135.498
_cell_angle_beta     135.498
_cell_angle_gamma    64.7567

_symmetry_Int_Tables_number  139
_chemical_formula_structural  Hg3Ir
_chemical_formula_sum  Hg3Ir
_cell_volume  78.89907519247177
_cell_formula_units_Z  1
loop_
  _symmetry_equiv_pos_site_id
 _symmetry_equiv_pos_as_xyz
 1  'x, y, z'
loop_
 _atom_site_type_symbol
 _atom_site_label
 _atom_site_symmetry_multiplicity
 _atom_site_fract_x
 _atom_site_fract_y
 _atom_site_fract_z
 _atom_site_fract_occupancy
 Hg  Hg1  1  0.75000  0.25000  0.50000  1
 Hg  Hg2  1  0.25000  0.75000  0.50000  1
 Hg  Hg3  1  0.50000  0.50000  0.00000  1
 Ir  Ir1  1  0.00000  0.00000  0.00000  1
