CIF file written using JARVIS-Tools package.
data_CoSn2H12O6F6
_symmetry_space_group_name_H-M  'P-1'
_cell_length_a       6.53321
_cell_length_b       7.14299
_cell_length_c       6.91265
_cell_angle_alpha    75.7403
_cell_angle_beta     68.7502
_cell_angle_gamma    79.7557

_symmetry_Int_Tables_number  2
_chemical_formula_structural  CoSn2H12O6F6
_chemical_formula_sum  CoSn2H2O6F6
_cell_volume  289.9890089221348
_cell_formula_units_Z  1
loop_
  _symmetry_equiv_pos_site_id
 _symmetry_equiv_pos_as_xyz
 1  'x, y, z'
loop_
 _atom_site_type_symbol
 _atom_site_label
 _atom_site_symmetry_multiplicity
 _atom_site_fract_x
 _atom_site_fract_y
 _atom_site_fract_z
 _atom_site_fract_occupancy
 Co  Co1  1  0.00000  0.00000  0.00000  1
 F  F1  1  0.44089  0.32184  0.00641  1
 F  F2  1  0.96995  0.57875  0.71282  1
 F  F3  1  0.03005  0.42125  0.28718  1
 F  F4  1  0.70039  0.92652  0.59596  1
 F  F5  1  0.55911  0.67816  0.99359  1
 F  F6  1  0.29961  0.07348  0.40404  1
 H  H1  1  0.75812  0.03249  0.74574  1
 H  H2  1  0.88623  0.26288  0.25335  1
 H  H3  1  0.27441  0.27100  0.89932  1
 H  H4  1  0.72559  0.72900  0.10068  1
 H  H5  1  0.11377  0.73712  0.74665  1
 H  H6  1  0.34552  0.81817  0.09234  1
 H  H7  1  0.24188  0.96751  0.25426  1
 H  H8  1  0.91666  0.63602  0.19901  1
 H  H9  1  0.65448  0.18183  0.90766  1
 H  H10  1  0.08334  0.36398  0.80099  1
 H  H11  1  0.75483  0.07579  0.37084  1
 H  H12  1  0.24517  0.92421  0.62916  1
 O  O1  1  0.82159  0.75821  0.17104  1
 O  O2  1  0.20757  0.89295  0.16700  1
 O  O3  1  0.20428  0.82611  0.76491  1
 O  O4  1  0.79572  0.17389  0.23509  1
 O  O5  1  0.79243  0.10705  0.83300  1
 O  O6  1  0.17841  0.24179  0.82896  1
 Sn  Sn1  1  0.64877  0.62834  0.67615  1
 Sn  Sn2  1  0.35123  0.37166  0.32385  1
