CIF file written using JARVIS-Tools package.
data_H2CO
_symmetry_space_group_name_H-M  'C2/c'
_cell_length_a       5.33827
_cell_length_b       4.42001
_cell_length_c       6.77642
_cell_angle_alpha    90
_cell_angle_beta     95.9616
_cell_angle_gamma    90

_symmetry_Int_Tables_number  15
_chemical_formula_structural  H2CO
_chemical_formula_sum  H8C4O4
_cell_volume  159.02624370448885
_cell_formula_units_Z  4
loop_
  _symmetry_equiv_pos_site_id
 _symmetry_equiv_pos_as_xyz
 1  'x, y, z'
loop_
 _atom_site_type_symbol
 _atom_site_label
 _atom_site_symmetry_multiplicity
 _atom_site_fract_x
 _atom_site_fract_y
 _atom_site_fract_z
 _atom_site_fract_occupancy
 C  C1  1  0.50000  0.85255  0.75000  1
 C  C2  1  0.50000  0.14745  0.25000  1
 C  C3  1  -0.00000  0.64752  0.25000  1
 C  C4  1  -0.00000  0.35248  0.75000  1
 H  H1  1  0.98773  0.77809  0.10936  1
 H  H2  1  0.01227  0.77809  0.39064  1
 H  H3  1  0.01227  0.22191  0.89064  1
 H  H4  1  0.98773  0.22191  0.60936  1
 H  H5  1  0.51251  0.72199  0.89064  1
 H  H6  1  0.48749  0.72199  0.60936  1
 H  H7  1  0.48749  0.27801  0.10936  1
 H  H8  1  0.51251  0.27801  0.39064  1
 O  O1  1  0.50000  0.12943  0.75000  1
 O  O2  1  0.50000  0.87057  0.25000  1
 O  O3  1  -0.00000  0.62936  0.75000  1
 O  O4  1  -0.00000  0.37064  0.25000  1
