CIF file written using JARVIS-Tools package.
data_UPbO4
_symmetry_space_group_name_H-M  'Pbcm'
_cell_length_a       5.61768
_cell_length_b       8.01533
_cell_length_c       8.26013
_cell_angle_alpha    90
_cell_angle_beta     90
_cell_angle_gamma    90

_symmetry_Int_Tables_number  57
_chemical_formula_structural  UPbO4
_chemical_formula_sum  U4Pb4O6
_cell_volume  371.9333867998852
_cell_formula_units_Z  4
loop_
  _symmetry_equiv_pos_site_id
 _symmetry_equiv_pos_as_xyz
 1  'x, y, z'
loop_
 _atom_site_type_symbol
 _atom_site_label
 _atom_site_symmetry_multiplicity
 _atom_site_fract_x
 _atom_site_fract_y
 _atom_site_fract_z
 _atom_site_fract_occupancy
 O  O1  1  0.84373  0.75000  0.00000  1
 O  O2  1  0.30051  0.91343  0.07840  1
 O  O3  1  0.30051  0.58657  0.92160  1
 O  O4  1  0.69949  0.41343  0.42160  1
 O  O5  1  0.13146  0.53777  0.25000  1
 O  O6  1  0.69949  0.08657  0.92160  1
 O  O7  1  0.69949  0.41343  0.07840  1
 O  O8  1  0.69949  0.08657  0.57840  1
 O  O9  1  0.30051  0.91343  0.42160  1
 O  O10  1  0.15627  0.25000  0.00000  1
 O  O11  1  0.84373  0.75000  0.50000  1
 O  O12  1  0.13146  0.96223  0.75000  1
 O  O13  1  0.15627  0.25000  0.50000  1
 O  O14  1  0.86854  0.03777  0.25000  1
 O  O15  1  0.86854  0.46223  0.75000  1
 O  O16  1  0.30051  0.58657  0.57840  1
 Pb  Pb1  1  0.49857  0.79614  0.75000  1
 Pb  Pb2  1  0.49857  0.70386  0.25000  1
 Pb  Pb3  1  0.50143  0.29614  0.75000  1
 Pb  Pb4  1  0.50143  0.20386  0.25000  1
 U  U1  1  0.00000  0.00000  0.50000  1
 U  U2  1  0.00000  0.50000  0.50000  1
 U  U3  1  0.00000  0.50000  0.00000  1
 U  U4  1  0.00000  0.00000  0.00000  1
