CIF file written using JARVIS-Tools package.
data_FeCl3
_symmetry_space_group_name_H-M  'P312'
_cell_length_a       5.79198
_cell_length_b       5.79198
_cell_length_c       16.78
_cell_angle_alpha    90
_cell_angle_beta     90
_cell_angle_gamma    120

_symmetry_Int_Tables_number  149
_chemical_formula_structural  FeCl3
_chemical_formula_sum  Fe6Cl8
_cell_volume  487.5027311035504
_cell_formula_units_Z  6
loop_
  _symmetry_equiv_pos_site_id
 _symmetry_equiv_pos_as_xyz
 1  'x, y, z'
loop_
 _atom_site_type_symbol
 _atom_site_label
 _atom_site_symmetry_multiplicity
 _atom_site_fract_x
 _atom_site_fract_y
 _atom_site_fract_z
 _atom_site_fract_occupancy
 Cl  Cl1  1  0.64317  0.64273  0.25601  1
 Cl  Cl2  1  0.02321  0.33305  0.92394  1
 Cl  Cl3  1  -0.00044  0.35683  0.25601  1
 Cl  Cl4  1  0.35727  0.00044  0.25601  1
 Cl  Cl5  1  0.64317  0.00044  0.74399  1
 Cl  Cl6  1  0.02321  0.69016  0.07606  1
 Cl  Cl7  1  0.66695  0.69016  0.92394  1
 Cl  Cl8  1  0.30984  0.33305  0.07606  1
 Cl  Cl9  1  -0.00044  0.64273  0.74399  1
 Cl  Cl10  1  0.35727  0.35683  0.74399  1
 Cl  Cl11  1  0.35521  0.35537  0.40805  1
 Cl  Cl12  1  0.64463  0.64479  0.59195  1
 Cl  Cl13  1  0.66695  0.97679  0.07606  1
 Cl  Cl14  1  0.64463  -0.00017  0.40805  1
 Cl  Cl15  1  0.00017  0.35537  0.59195  1
 Cl  Cl16  1  0.00017  0.64479  0.40805  1
 Cl  Cl17  1  0.35521  -0.00017  0.59195  1
 Cl  Cl18  1  0.30984  0.97679  0.92394  1
 Fe  Fe1  1  0.33333  0.66667  0.00000  1
 Fe  Fe2  1  0.66667  0.33333  0.66780  1
 Fe  Fe3  1  0.00000  0.00000  0.00000  1
 Fe  Fe4  1  0.33333  0.66667  0.33215  1
 Fe  Fe5  1  0.66667  0.33333  0.33220  1
 Fe  Fe6  1  0.33333  0.66667  0.66785  1
