CIF file written using JARVIS-Tools package.
data_RbSrSiHO4
_symmetry_space_group_name_H-M  'P2_1'
_cell_length_a       5.81327
_cell_length_b       7.84017
_cell_length_c       5.85715
_cell_angle_alpha    90
_cell_angle_beta     118.934
_cell_angle_gamma    90

_symmetry_Int_Tables_number  4
_chemical_formula_structural  RbSrSiHO4
_chemical_formula_sum  Rb2Sr2Si2H2O8
_cell_volume  233.62870645729572
_cell_formula_units_Z  2
loop_
  _symmetry_equiv_pos_site_id
 _symmetry_equiv_pos_as_xyz
 1  'x, y, z'
loop_
 _atom_site_type_symbol
 _atom_site_label
 _atom_site_symmetry_multiplicity
 _atom_site_fract_x
 _atom_site_fract_y
 _atom_site_fract_z
 _atom_site_fract_occupancy
 H  H1  1  0.50702  0.00461  0.46155  1
 H  H2  1  0.49298  0.50461  0.53845  1
 O  O1  1  0.85338  0.23771  0.21485  1
 O  O2  1  0.14662  0.73771  0.78515  1
 O  O3  1  0.87621  0.24090  0.69291  1
 O  O4  1  0.12379  0.74090  0.30709  1
 O  O5  1  0.47460  0.40303  0.28684  1
 O  O6  1  0.52540  0.90303  0.71316  1
 O  O7  1  0.48968  0.06710  0.29994  1
 O  O8  1  0.51032  0.56710  0.70006  1
 Rb  Rb1  1  0.35913  0.23145  0.71889  1
 Rb  Rb2  1  0.64087  0.73145  0.28111  1
 Si  Si1  1  0.68778  0.24546  0.37487  1
 Si  Si2  1  0.31222  0.74546  0.62513  1
 Sr  Sr1  1  0.01024  0.48675  0.00638  1
 Sr  Sr2  1  0.98976  0.98675  0.99362  1
