CIF file written using JARVIS-Tools package.
data_SeCl
_symmetry_space_group_name_H-M  'P2_1/c'
_cell_length_a       4.7626
_cell_length_b       7.1487
_cell_length_c       13.6536
_cell_angle_alpha    90
_cell_angle_beta     90
_cell_angle_gamma    94.96

_symmetry_Int_Tables_number  14
_chemical_formula_structural  SeCl
_chemical_formula_sum  Se8Cl8
_cell_volume  463.1155219972787
_cell_formula_units_Z  8
loop_
  _symmetry_equiv_pos_site_id
 _symmetry_equiv_pos_as_xyz
 1  'x, y, z'
loop_
 _atom_site_type_symbol
 _atom_site_label
 _atom_site_symmetry_multiplicity
 _atom_site_fract_x
 _atom_site_fract_y
 _atom_site_fract_z
 _atom_site_fract_occupancy
 Cl  Cl1  1  0.87297  0.66606  0.14677  1
 Cl  Cl2  1  0.62703  0.33394  0.64677  1
 Cl  Cl3  1  0.12703  0.33394  0.85323  1
 Cl  Cl4  1  0.37297  0.66606  0.35323  1
 Cl  Cl5  1  0.49288  0.05012  0.14756  1
 Cl  Cl6  1  0.00712  0.94988  0.64756  1
 Cl  Cl7  1  0.50712  0.94988  0.85244  1
 Cl  Cl8  1  0.99288  0.05012  0.35244  1
 Se  Se1  1  0.09267  0.39260  0.14063  1
 Se  Se2  1  0.40733  0.60740  0.64063  1
 Se  Se3  1  0.90733  0.60740  0.85937  1
 Se  Se4  1  0.59267  0.39260  0.35937  1
 Se  Se5  1  0.81376  0.20409  0.04292  1
 Se  Se6  1  0.68624  0.79591  0.54292  1
 Se  Se7  1  0.18624  0.79591  0.95708  1
 Se  Se8  1  0.31376  0.20409  0.45708  1
