CIF file written using JARVIS-Tools package.
data_PmHo3
_symmetry_space_group_name_H-M  'P6_3/mmc'
_cell_length_a       7.14506
_cell_length_b       7.14506
_cell_length_c       5.62506
_cell_angle_alpha    90
_cell_angle_beta     90
_cell_angle_gamma    120

_symmetry_Int_Tables_number  194
_chemical_formula_structural  PmHo3
_chemical_formula_sum  Pm2Ho6
_cell_volume  248.69636025345386
_cell_formula_units_Z  2
loop_
  _symmetry_equiv_pos_site_id
 _symmetry_equiv_pos_as_xyz
 1  'x, y, z'
loop_
 _atom_site_type_symbol
 _atom_site_label
 _atom_site_symmetry_multiplicity
 _atom_site_fract_x
 _atom_site_fract_y
 _atom_site_fract_z
 _atom_site_fract_occupancy
 Ho  Ho1  1  0.83436  0.66871  0.75000  1
 Ho  Ho2  1  0.83436  0.16564  0.75000  1
 Ho  Ho3  1  0.33129  0.16564  0.75000  1
 Ho  Ho4  1  0.16564  0.33129  0.25000  1
 Ho  Ho5  1  0.16564  0.83436  0.25000  1
 Ho  Ho6  1  0.66871  0.83436  0.25000  1
 Pm  Pm1  1  0.66667  0.33333  0.25000  1
 Pm  Pm2  1  0.33333  0.66667  0.75000  1
