CIF file written using JARVIS-Tools package.
data_SrAgO2
_symmetry_space_group_name_H-M  'Pmma'
_cell_length_a       3.57168
_cell_length_b       4.5046
_cell_length_c       7.6653
_cell_angle_alpha    90
_cell_angle_beta     90
_cell_angle_gamma    90

_symmetry_Int_Tables_number  51
_chemical_formula_structural  SrAgO2
_chemical_formula_sum  Sr2Ag2O4
_cell_volume  123.32700775005193
_cell_formula_units_Z  2
loop_
  _symmetry_equiv_pos_site_id
 _symmetry_equiv_pos_as_xyz
 1  'x, y, z'
loop_
 _atom_site_type_symbol
 _atom_site_label
 _atom_site_symmetry_multiplicity
 _atom_site_fract_x
 _atom_site_fract_y
 _atom_site_fract_z
 _atom_site_fract_occupancy
 Ag  Ag1  1  0.00000  0.00000  0.00000  1
 Ag  Ag2  1  0.00000  0.00000  0.50000  1
 O  O1  1  0.76591  0.00000  0.75000  1
 O  O2  1  0.23409  0.00000  0.25000  1
 O  O3  1  0.00000  0.50000  0.00000  1
 O  O4  1  0.00000  0.50000  0.50000  1
 Sr  Sr1  1  0.51743  0.50000  0.25000  1
 Sr  Sr2  1  0.48257  0.50000  0.75000  1
