CIF file written using JARVIS-Tools package.
data_VIr
_symmetry_space_group_name_H-M  'Cmcm'
_cell_length_a       4.05641
_cell_length_b       5.2602
_cell_length_c       5.2602
_cell_angle_alpha    84.2258
_cell_angle_beta     90
_cell_angle_gamma    90

_symmetry_Int_Tables_number  63
_chemical_formula_structural  VIr
_chemical_formula_sum  V4Ir4
_cell_volume  111.67039943126855
_cell_formula_units_Z  4
loop_
  _symmetry_equiv_pos_site_id
 _symmetry_equiv_pos_as_xyz
 1  'x, y, z'
loop_
 _atom_site_type_symbol
 _atom_site_label
 _atom_site_symmetry_multiplicity
 _atom_site_fract_x
 _atom_site_fract_y
 _atom_site_fract_z
 _atom_site_fract_occupancy
 Ir  Ir1  1  0.00000  0.96376  0.52233  1
 Ir  Ir2  1  0.00000  0.52233  0.96376  1
 Ir  Ir3  1  0.50000  0.27375  0.71517  1
 Ir  Ir4  1  0.50000  0.71517  0.27375  1
 V  V1  1  0.00000  0.02517  0.02517  1
 V  V2  1  0.00000  0.45294  0.45294  1
 V  V3  1  0.50000  0.21232  0.21232  1
 V  V4  1  0.50000  0.78455  0.78455  1
