CIF file written using JARVIS-Tools package.
data_CaAgO2
_symmetry_space_group_name_H-M  'Cmmm'
_cell_length_a       3.32306
_cell_length_b       5.85176
_cell_length_c       5.85177
_cell_angle_alpha    70.4305
_cell_angle_beta     90
_cell_angle_gamma    90

_symmetry_Int_Tables_number  65
_chemical_formula_structural  CaAgO2
_chemical_formula_sum  Ca2Ag2O4
_cell_volume  107.21902811936823
_cell_formula_units_Z  2
loop_
  _symmetry_equiv_pos_site_id
 _symmetry_equiv_pos_as_xyz
 1  'x, y, z'
loop_
 _atom_site_type_symbol
 _atom_site_label
 _atom_site_symmetry_multiplicity
 _atom_site_fract_x
 _atom_site_fract_y
 _atom_site_fract_z
 _atom_site_fract_occupancy
 Ag  Ag1  1  0.50000  0.50000  0.50000  1
 Ag  Ag2  1  0.50000  0.00000  0.00000  1
 Ca  Ca1  1  0.00000  0.50000  0.00000  1
 Ca  Ca2  1  0.00000  -0.00000  0.50000  1
 O  O1  1  0.50000  0.22287  0.22287  1
 O  O2  1  0.00000  0.70777  0.29223  1
 O  O3  1  0.00000  0.29223  0.70777  1
 O  O4  1  0.50000  0.77713  0.77713  1
