CIF file written using JARVIS-Tools package.
data_TiSCl6O
_symmetry_space_group_name_H-M  'P-1'
_cell_length_a       6.13804
_cell_length_b       7.59691
_cell_length_c       10.7712
_cell_angle_alpha    107.398
_cell_angle_beta     91.6364
_cell_angle_gamma    112.201

_symmetry_Int_Tables_number  2
_chemical_formula_structural  TiSCl6O
_chemical_formula_sum  Ti2S2Cl2O2
_cell_volume  438.0214649347982
_cell_formula_units_Z  2
loop_
  _symmetry_equiv_pos_site_id
 _symmetry_equiv_pos_as_xyz
 1  'x, y, z'
loop_
 _atom_site_type_symbol
 _atom_site_label
 _atom_site_symmetry_multiplicity
 _atom_site_fract_x
 _atom_site_fract_y
 _atom_site_fract_z
 _atom_site_fract_occupancy
 Cl  Cl1  1  0.04146  0.72456  0.65525  1
 Cl  Cl2  1  0.95854  0.27544  0.34475  1
 Cl  Cl3  1  0.59621  0.47766  0.80417  1
 Cl  Cl4  1  0.04307  0.81184  0.33157  1
 Cl  Cl5  1  0.18139  0.67276  0.94173  1
 Cl  Cl6  1  0.95693  0.18816  0.66843  1
 Cl  Cl7  1  0.81861  0.32724  0.05827  1
 Cl  Cl8  1  0.20770  0.11836  0.93473  1
 Cl  Cl9  1  0.45442  0.23272  0.49260  1
 Cl  Cl10  1  0.40379  0.52234  0.19583  1
 Cl  Cl11  1  0.54558  0.76728  0.50740  1
 Cl  Cl12  1  0.79230  0.88164  0.06527  1
 O  O1  1  0.30656  0.10315  0.21144  1
 O  O2  1  0.69344  0.89685  0.78856  1
 S  S1  1  0.63677  0.98644  0.69580  1
 S  S2  1  0.36323  0.01356  0.30420  1
 Ti  Ti1  1  0.07103  0.23865  0.14568  1
 Ti  Ti2  1  0.92897  0.76135  0.85432  1
