CIF file written using JARVIS-Tools package.
data_TbB4Ir4
_symmetry_space_group_name_H-M  'P4_2/n'
_cell_length_a       7.6758
_cell_length_b       7.6758
_cell_length_c       3.97413
_cell_angle_alpha    90
_cell_angle_beta     90
_cell_angle_gamma    90

_symmetry_Int_Tables_number  86
_chemical_formula_structural  TbB4Ir4
_chemical_formula_sum  Tb2B8Ir8
_cell_volume  234.14740701969671
_cell_formula_units_Z  2
loop_
  _symmetry_equiv_pos_site_id
 _symmetry_equiv_pos_as_xyz
 1  'x, y, z'
loop_
 _atom_site_type_symbol
 _atom_site_label
 _atom_site_symmetry_multiplicity
 _atom_site_fract_x
 _atom_site_fract_y
 _atom_site_fract_z
 _atom_site_fract_occupancy
 B  B1  1  0.84309  0.27555  0.38881  1
 B  B2  1  0.65691  0.22445  0.11119  1
 B  B3  1  0.22445  0.34309  0.88881  1
 B  B4  1  0.77555  0.65691  0.88881  1
 B  B5  1  0.34309  0.77555  0.11119  1
 B  B6  1  0.27555  0.15691  0.61119  1
 B  B7  1  0.15691  0.72445  0.38881  1
 B  B8  1  0.72445  0.84309  0.61119  1
 Ir  Ir1  1  0.83788  0.39205  0.88734  1
 Ir  Ir2  1  0.66212  0.10795  0.61266  1
 Ir  Ir3  1  0.33788  0.89205  0.61266  1
 Ir  Ir4  1  0.10795  0.33788  0.38734  1
 Ir  Ir5  1  0.60795  0.83788  0.11266  1
 Ir  Ir6  1  0.39205  0.16212  0.11266  1
 Ir  Ir7  1  0.16212  0.60795  0.88734  1
 Ir  Ir8  1  0.89205  0.66212  0.38734  1
 Tb  Tb1  1  0.00000  0.00000  0.00000  1
 Tb  Tb2  1  0.50000  0.50000  0.50000  1
