CIF file written using JARVIS-Tools package.
data_MgP
_symmetry_space_group_name_H-M  'R32'
_cell_length_a       4.90388
_cell_length_b       4.90387
_cell_length_c       4.89759
_cell_angle_alpha    86.2271
_cell_angle_beta     93.7729
_cell_angle_gamma    93.884

_symmetry_Int_Tables_number  155
_chemical_formula_structural  MgP
_chemical_formula_sum  Mg3P3
_cell_volume  117.02909937580529
_cell_formula_units_Z  3
loop_
  _symmetry_equiv_pos_site_id
 _symmetry_equiv_pos_as_xyz
 1  'x, y, z'
loop_
 _atom_site_type_symbol
 _atom_site_label
 _atom_site_symmetry_multiplicity
 _atom_site_fract_x
 _atom_site_fract_y
 _atom_site_fract_z
 _atom_site_fract_occupancy
 Mg  Mg1  1  0.20581  0.16650  0.37271  1
 Mg  Mg2  1  0.83317  0.53914  0.62729  1
 Mg  Mg3  1  0.46086  0.79420  1.00000  1
 P  P1  1  0.70981  0.29039  0.12342  1
 P  P2  1  0.33330  0.66663  0.50000  1
 P  P3  1  0.95705  0.04314  0.87658  1
