CIF file written using JARVIS-Tools package.
data_FeO2
_symmetry_space_group_name_H-M  'R-3m'
_cell_length_a       2.82055
_cell_length_b       2.82055
_cell_length_c       8.92247
_cell_angle_alpha    90
_cell_angle_beta     80.9058
_cell_angle_gamma    120

_symmetry_Int_Tables_number  166
_chemical_formula_structural  FeO2
_chemical_formula_sum  Fe2O4
_cell_volume  60.4401858497119
_cell_formula_units_Z  2
loop_
  _symmetry_equiv_pos_site_id
 _symmetry_equiv_pos_as_xyz
 1  'x, y, z'
loop_
 _atom_site_type_symbol
 _atom_site_label
 _atom_site_symmetry_multiplicity
 _atom_site_fract_x
 _atom_site_fract_y
 _atom_site_fract_z
 _atom_site_fract_occupancy
 Fe  Fe1  1  0.50000  0.75000  0.75000  1
 Fe  Fe2  1  0.50000  0.25000  0.25000  1
 O  O1  1  0.23727  0.61863  0.14410  1
 O  O2  1  0.23727  0.11863  0.64410  1
 O  O3  1  0.76273  0.88137  0.35590  1
 O  O4  1  0.76274  0.38137  0.85590  1
