CIF file written using JARVIS-Tools package.
data_Rh2S3
_symmetry_space_group_name_H-M  'R-3c'
_cell_length_a       6.01801
_cell_length_b       6.01801
_cell_length_c       6.32755
_cell_angle_alpha    118.394
_cell_angle_beta     61.6055
_cell_angle_gamma    120

_symmetry_Int_Tables_number  167
_chemical_formula_structural  Rh2S3
_chemical_formula_sum  Rh4S6
_cell_volume  165.86330181974267
_cell_formula_units_Z  2
loop_
  _symmetry_equiv_pos_site_id
 _symmetry_equiv_pos_as_xyz
 1  'x, y, z'
loop_
 _atom_site_type_symbol
 _atom_site_label
 _atom_site_symmetry_multiplicity
 _atom_site_fract_x
 _atom_site_fract_y
 _atom_site_fract_z
 _atom_site_fract_occupancy
 Rh  Rh1  1  0.64974  0.35026  0.05079  1
 Rh  Rh2  1  0.85026  0.14974  0.44921  1
 Rh  Rh3  1  0.14974  0.85026  0.55079  1
 Rh  Rh4  1  0.35026  0.64974  0.94921  1
 S  S1  1  0.94963  0.44963  0.25000  1
 S  S2  1  0.55037  0.75000  0.25000  1
 S  S3  1  0.25000  0.05037  0.25000  1
 S  S4  1  0.75000  0.94963  0.75000  1
 S  S5  1  0.44963  0.25000  0.75000  1
 S  S6  1  0.05037  0.55037  0.75000  1
