CIF file written using JARVIS-Tools package.
data_CuH2O2
_symmetry_space_group_name_H-M  'Cmc2_1'
_cell_length_a       2.95868
_cell_length_b       5.58718
_cell_length_c       5.37284
_cell_angle_alpha    90
_cell_angle_beta     105.982
_cell_angle_gamma    90

_symmetry_Int_Tables_number  36
_chemical_formula_structural  CuH2O2
_chemical_formula_sum  Cu2H4O4
_cell_volume  85.38366476979348
_cell_formula_units_Z  2
loop_
  _symmetry_equiv_pos_site_id
 _symmetry_equiv_pos_as_xyz
 1  'x, y, z'
loop_
 _atom_site_type_symbol
 _atom_site_label
 _atom_site_symmetry_multiplicity
 _atom_site_fract_x
 _atom_site_fract_y
 _atom_site_fract_z
 _atom_site_fract_occupancy
 Cu  Cu1  1  0.83240  0.23987  0.66480  1
 Cu  Cu2  1  0.16760  0.73987  0.33520  1
 H  H1  1  0.48782  0.44332  0.97563  1
 H  H2  1  0.51218  0.94332  0.02437  1
 H  H3  1  0.13348  0.21270  0.26696  1
 H  H4  1  0.86652  0.71270  0.73304  1
 O  O1  1  0.46185  0.27264  0.92371  1
 O  O2  1  0.53815  0.77264  0.07629  1
 O  O3  1  0.21899  0.13478  0.43798  1
 O  O4  1  0.78101  0.63478  0.56202  1
