CIF file written using JARVIS-Tools package.
data_Na2Zn3Se4
_symmetry_space_group_name_H-M  'Ibam'
_cell_length_a       6.24088
_cell_length_b       9.00711
_cell_length_c       9.00711
_cell_angle_alpha    68.2707
_cell_angle_beta     69.7302
_cell_angle_gamma    69.7301

_symmetry_Int_Tables_number  72
_chemical_formula_structural  Na2Zn3Se4
_chemical_formula_sum  Na4Zn6Se8
_cell_volume  427.15385136187615
_cell_formula_units_Z  2
loop_
  _symmetry_equiv_pos_site_id
 _symmetry_equiv_pos_as_xyz
 1  'x, y, z'
loop_
 _atom_site_type_symbol
 _atom_site_label
 _atom_site_symmetry_multiplicity
 _atom_site_fract_x
 _atom_site_fract_y
 _atom_site_fract_z
 _atom_site_fract_occupancy
 Na  Na1  1  0.74112  0.62337  0.37663  1
 Na  Na2  1  0.25888  0.37663  0.62337  1
 Na  Na3  1  0.75888  0.12337  0.87663  1
 Na  Na4  1  0.24112  0.87663  0.12337  1
 Se  Se1  1  0.40540  0.99388  0.73367  1
 Se  Se2  1  0.36704  0.49388  0.23367  1
 Se  Se3  1  0.90540  0.23367  0.49388  1
 Se  Se4  1  0.13296  0.26633  0.00612  1
 Se  Se5  1  0.59460  0.00612  0.26633  1
 Se  Se6  1  0.09460  0.76633  0.50612  1
 Se  Se7  1  0.63296  0.50612  0.76633  1
 Se  Se8  1  0.86704  0.73367  0.99388  1
 Zn  Zn1  1  0.25000  0.25000  0.25000  1
 Zn  Zn2  1  0.75000  0.03873  0.46127  1
 Zn  Zn3  1  0.25000  0.53873  0.96127  1
 Zn  Zn4  1  0.75000  0.46127  0.03873  1
 Zn  Zn5  1  0.25000  0.96127  0.53873  1
 Zn  Zn6  1  0.75000  0.75000  0.75000  1
