CIF file written using JARVIS-Tools package.
data_Te2Mo3Se2S2
_symmetry_space_group_name_H-M  'Cm'
_cell_length_a       3.35801
_cell_length_b       3.35808
_cell_length_c       20.5293
_cell_angle_alpha    80.548
_cell_angle_beta     90
_cell_angle_gamma    119.999

_symmetry_Int_Tables_number  8
_chemical_formula_structural  Te2Mo3Se2S2
_chemical_formula_sum  Te2Mo3Se2S2
_cell_volume  196.84640970170085
_cell_formula_units_Z  1
loop_
  _symmetry_equiv_pos_site_id
 _symmetry_equiv_pos_as_xyz
 1  'x, y, z'
loop_
 _atom_site_type_symbol
 _atom_site_label
 _atom_site_symmetry_multiplicity
 _atom_site_fract_x
 _atom_site_fract_y
 _atom_site_fract_z
 _atom_site_fract_occupancy
 Mo  Mo1  1  0.43959  0.87919  0.02061  1
 Mo  Mo2  1  0.33031  0.66062  0.68613  1
 Mo  Mo3  1  0.56340  0.12679  0.33425  1
 S  S1  1  0.82323  0.64645  -0.05454  1
 S  S2  1  0.72264  0.44527  0.09573  1
 Se  Se1  1  0.17488  0.34975  0.41670  1
 Se  Se2  1  0.28534  0.57068  0.25169  1
 Te  Te1  1  0.72662  0.45323  0.59202  1
 Te  Te2  1  0.60061  0.20121  0.78027  1
