CIF file written using JARVIS-Tools package.
data_Si3Mo
_symmetry_space_group_name_H-M  'P6_3/mmc'
_cell_length_a       5.26694
_cell_length_b       5.26694
_cell_length_c       4.88113
_cell_angle_alpha    90
_cell_angle_beta     90
_cell_angle_gamma    120

_symmetry_Int_Tables_number  194
_chemical_formula_structural  Si3Mo
_chemical_formula_sum  Si6Mo2
_cell_volume  117.26516736636478
_cell_formula_units_Z  2
loop_
  _symmetry_equiv_pos_site_id
 _symmetry_equiv_pos_as_xyz
 1  'x, y, z'
loop_
 _atom_site_type_symbol
 _atom_site_label
 _atom_site_symmetry_multiplicity
 _atom_site_fract_x
 _atom_site_fract_y
 _atom_site_fract_z
 _atom_site_fract_occupancy
 Mo  Mo1  1  0.66667  0.33333  0.75000  1
 Mo  Mo2  1  0.33333  0.66667  0.25000  1
 Si  Si1  1  0.82332  0.64665  0.25000  1
 Si  Si2  1  0.35335  0.17668  0.25000  1
 Si  Si3  1  0.82332  0.17668  0.25000  1
 Si  Si4  1  0.17668  0.35335  0.75000  1
 Si  Si5  1  0.64665  0.82332  0.75000  1
 Si  Si6  1  0.17668  0.82332  0.75000  1
