CIF file written using JARVIS-Tools package.
data_ZnO
_symmetry_space_group_name_H-M  'P6_3/mmc'
_cell_length_a       3.04119
_cell_length_b       3.04119
_cell_length_c       30.3436
_cell_angle_alpha    90
_cell_angle_beta     90
_cell_angle_gamma    120

_symmetry_Int_Tables_number  194
_chemical_formula_structural  ZnO
_chemical_formula_sum  Zn2O2
_cell_volume  243.04477054381766
_cell_formula_units_Z  12
loop_
  _symmetry_equiv_pos_site_id
 _symmetry_equiv_pos_as_xyz
 1  'x, y, z'
loop_
 _atom_site_type_symbol
 _atom_site_label
 _atom_site_symmetry_multiplicity
 _atom_site_fract_x
 _atom_site_fract_y
 _atom_site_fract_z
 _atom_site_fract_occupancy
 O  O1  1  0.00000  0.00000  0.37611  1
 O  O2  1  0.00000  0.00000  0.62389  1
 O  O3  1  0.33333  0.66667  0.95870  1
 O  O4  1  0.66667  0.33333  0.04130  1
 O  O5  1  0.66667  0.33333  0.45870  1
 O  O6  1  0.33333  0.66667  0.54130  1
 O  O7  1  0.66667  0.33333  0.79374  1
 O  O8  1  0.66667  0.33333  0.70626  1
 O  O9  1  0.33333  0.66667  0.29374  1
 O  O10  1  0.00000  0.00000  0.12389  1
 O  O11  1  0.00000  0.00000  0.87611  1
 O  O12  1  0.33333  0.66667  0.20626  1
 Zn  Zn1  1  0.33333  0.66667  0.83477  1
 Zn  Zn2  1  0.66667  0.33333  0.33477  1
 Zn  Zn3  1  0.33333  0.66667  0.66523  1
 Zn  Zn4  1  0.33333  0.66667  0.41740  1
 Zn  Zn5  1  0.00000  0.00000  0.50000  1
 Zn  Zn6  1  0.66667  0.33333  0.91740  1
 Zn  Zn7  1  0.33333  0.66667  0.08260  1
 Zn  Zn8  1  0.00000  0.00000  0.25000  1
 Zn  Zn9  1  0.00000  0.00000  0.75000  1
 Zn  Zn10  1  0.00000  0.00000  0.00000  1
 Zn  Zn11  1  0.66667  0.33333  0.16523  1
 Zn  Zn12  1  0.66667  0.33333  0.58260  1
