CIF file written using JARVIS-Tools package.
data_Zn2SiO4
_symmetry_space_group_name_H-M  'Pnma'
_cell_length_a       5.11691
_cell_length_b       6.70625
_cell_length_c       10.3843
_cell_angle_alpha    90
_cell_angle_beta     90
_cell_angle_gamma    90

_symmetry_Int_Tables_number  62
_chemical_formula_structural  Zn2SiO4
_chemical_formula_sum  Zn8Si4O6
_cell_volume  356.3387405535804
_cell_formula_units_Z  4
loop_
  _symmetry_equiv_pos_site_id
 _symmetry_equiv_pos_as_xyz
 1  'x, y, z'
loop_
 _atom_site_type_symbol
 _atom_site_label
 _atom_site_symmetry_multiplicity
 _atom_site_fract_x
 _atom_site_fract_y
 _atom_site_fract_z
 _atom_site_fract_occupancy
 O  O1  1  0.28972  0.04897  0.33750  1
 O  O2  1  0.14766  0.75000  0.61041  1
 O  O3  1  0.71028  0.54897  0.66250  1
 O  O4  1  0.85234  0.25000  0.38959  1
 O  O5  1  0.64766  0.25000  0.88959  1
 O  O6  1  0.76156  0.75000  0.93911  1
 O  O7  1  0.73844  0.75000  0.43911  1
 O  O8  1  0.35234  0.75000  0.11041  1
 O  O9  1  0.26156  0.25000  0.56089  1
 O  O10  1  0.71028  0.95103  0.66250  1
 O  O11  1  0.78972  0.54897  0.16250  1
 O  O12  1  0.28972  0.45103  0.33750  1
 O  O13  1  0.21028  0.04897  0.83750  1
 O  O14  1  0.78972  0.95103  0.16250  1
 O  O15  1  0.21028  0.45103  0.83750  1
 O  O16  1  0.23844  0.25000  0.06089  1
 Si  Si1  1  0.82752  0.75000  0.59126  1
 Si  Si2  1  0.67248  0.75000  0.09126  1
 Si  Si3  1  0.17248  0.25000  0.40874  1
 Si  Si4  1  0.32752  0.25000  0.90874  1
 Zn  Zn1  1  0.17055  0.00025  0.15600  1
 Zn  Zn2  1  0.32945  0.49975  0.65600  1
 Zn  Zn3  1  0.82945  0.50025  0.84400  1
 Zn  Zn4  1  0.67055  -0.00025  0.34400  1
 Zn  Zn5  1  0.82945  -0.00025  0.84400  1
 Zn  Zn6  1  0.67055  0.50025  0.34400  1
 Zn  Zn7  1  0.17055  0.49975  0.15600  1
 Zn  Zn8  1  0.32945  0.00025  0.65600  1
