CIF file written using JARVIS-Tools package.
data_Na6ZnSe4
_symmetry_space_group_name_H-M  'P6_3mc'
_cell_length_a       9.31996
_cell_length_b       9.31996
_cell_length_c       7.15117
_cell_angle_alpha    90
_cell_angle_beta     90
_cell_angle_gamma    120

_symmetry_Int_Tables_number  186
_chemical_formula_structural  Na6ZnSe4
_chemical_formula_sum  Na2Zn2Se8
_cell_volume  537.941669490814
_cell_formula_units_Z  2
loop_
  _symmetry_equiv_pos_site_id
 _symmetry_equiv_pos_as_xyz
 1  'x, y, z'
loop_
 _atom_site_type_symbol
 _atom_site_label
 _atom_site_symmetry_multiplicity
 _atom_site_fract_x
 _atom_site_fract_y
 _atom_site_fract_z
 _atom_site_fract_occupancy
 Na  Na1  1  0.29677  0.14838  0.03945  1
 Na  Na2  1  0.14838  0.29677  0.53945  1
 Na  Na3  1  0.85162  0.70323  0.03945  1
 Na  Na4  1  0.70323  0.85162  0.53945  1
 Na  Na5  1  0.14838  0.85162  0.53945  1
 Na  Na6  1  0.52855  0.47145  0.36577  1
 Na  Na7  1  0.85162  0.14838  0.03945  1
 Na  Na8  1  0.47145  0.52855  0.86577  1
 Na  Na9  1  0.47145  0.94291  0.86577  1
 Na  Na10  1  0.94291  0.47145  0.36577  1
 Na  Na11  1  0.52855  0.05709  0.36577  1
 Na  Na12  1  0.05709  0.52855  0.86577  1
 Se  Se1  1  0.62757  0.81379  0.13905  1
 Se  Se2  1  0.18621  0.81379  0.13905  1
 Se  Se3  1  0.66667  0.33333  0.09885  1
 Se  Se4  1  0.33333  0.66667  0.59885  1
 Se  Se5  1  0.37243  0.18621  0.63905  1
 Se  Se6  1  0.81379  0.18621  0.63905  1
 Se  Se7  1  0.81379  0.62757  0.63905  1
 Se  Se8  1  0.18621  0.37243  0.13905  1
 Zn  Zn1  1  0.66667  0.33333  0.74782  1
 Zn  Zn2  1  0.33333  0.66667  0.24782  1
