CIF file written using JARVIS-Tools package.
data_LaWN3
_symmetry_space_group_name_H-M  'R3m'
_cell_length_a       4.04229
_cell_length_b       4.04229
_cell_length_c       4.04229
_cell_angle_alpha    89.6341
_cell_angle_beta     89.6341
_cell_angle_gamma    89.634

_symmetry_Int_Tables_number  160
_chemical_formula_structural  LaWN3
_chemical_formula_sum  LaWN3
_cell_volume  66.0472949750309
_cell_formula_units_Z  1
loop_
  _symmetry_equiv_pos_site_id
 _symmetry_equiv_pos_as_xyz
 1  'x, y, z'
loop_
 _atom_site_type_symbol
 _atom_site_label
 _atom_site_symmetry_multiplicity
 _atom_site_fract_x
 _atom_site_fract_y
 _atom_site_fract_z
 _atom_site_fract_occupancy
 La  La1  1  0.95109  0.95109  0.95109  1
 N  N1  1  0.40514  0.91414  0.40514  1
 N  N2  1  0.91414  0.40514  0.40514  1
 N  N3  1  0.40514  0.40514  0.91414  1
 W  W1  1  0.44948  0.44948  0.44948  1
