CIF file written using JARVIS-Tools package.
data_Y2Au
_symmetry_space_group_name_H-M  'Pnma'
_cell_length_a       4.93604
_cell_length_b       7.09935
_cell_length_c       8.94462
_cell_angle_alpha    90
_cell_angle_beta     90
_cell_angle_gamma    90

_symmetry_Int_Tables_number  62
_chemical_formula_structural  Y2Au
_chemical_formula_sum  Y8Au4
_cell_volume  313.4437322549573
_cell_formula_units_Z  4
loop_
  _symmetry_equiv_pos_site_id
 _symmetry_equiv_pos_as_xyz
 1  'x, y, z'
loop_
 _atom_site_type_symbol
 _atom_site_label
 _atom_site_symmetry_multiplicity
 _atom_site_fract_x
 _atom_site_fract_y
 _atom_site_fract_z
 _atom_site_fract_occupancy
 Au  Au1  1  0.75000  0.25814  0.09829  1
 Au  Au2  1  0.75000  0.75814  0.40171  1
 Au  Au3  1  0.25000  0.24186  0.59829  1
 Au  Au4  1  0.25000  0.74186  0.90171  1
 Y  Y1  1  0.75000  0.85049  0.08202  1
 Y  Y2  1  0.25000  0.51196  0.17565  1
 Y  Y3  1  0.25000  0.01196  0.32435  1
 Y  Y4  1  0.75000  0.35049  0.41798  1
 Y  Y5  1  0.25000  0.64951  0.58202  1
 Y  Y6  1  0.75000  0.98804  0.67565  1
 Y  Y7  1  0.75000  0.48804  0.82435  1
 Y  Y8  1  0.25000  0.14951  0.91798  1
