CIF file written using JARVIS-Tools package.
data_PH6NO2
_symmetry_space_group_name_H-M  'Cmme'
_cell_length_a       6.87409
_cell_length_b       6.87409
_cell_length_c       3.89129
_cell_angle_alpha    90
_cell_angle_beta     90
_cell_angle_gamma    65.3489

_symmetry_Int_Tables_number  67
_chemical_formula_structural  PH6NO2
_chemical_formula_sum  P2H2N2O4
_cell_volume  167.118150967587
_cell_formula_units_Z  2
loop_
  _symmetry_equiv_pos_site_id
 _symmetry_equiv_pos_as_xyz
 1  'x, y, z'
loop_
 _atom_site_type_symbol
 _atom_site_label
 _atom_site_symmetry_multiplicity
 _atom_site_fract_x
 _atom_site_fract_y
 _atom_site_fract_z
 _atom_site_fract_occupancy
 H  H1  1  0.28027  0.61524  0.65442  1
 H  H2  1  0.78027  0.11524  0.34558  1
 H  H3  1  0.88476  0.21973  0.65442  1
 H  H4  1  0.61524  0.28027  0.65442  1
 H  H5  1  0.71973  0.38476  0.34558  1
 H  H6  1  0.40040  0.09960  0.29130  1
 H  H7  1  0.90040  0.59960  0.70870  1
 H  H8  1  0.09960  0.40040  0.29130  1
 H  H9  1  0.38476  0.71973  0.34558  1
 H  H10  1  0.21973  0.88476  0.65442  1
 H  H11  1  0.11524  0.78027  0.34558  1
 H  H12  1  0.59960  0.90040  0.70870  1
 N  N1  1  0.25000  0.75000  0.50000  1
 N  N2  1  0.75000  0.25000  0.50000  1
 O  O1  1  0.13649  0.13649  0.86796  1
 O  O2  1  0.36351  0.36351  0.86796  1
 O  O3  1  0.63649  0.63649  0.13204  1
 O  O4  1  0.86351  0.86351  0.13204  1
 P  P1  1  0.75000  0.75000  0.93415  1
 P  P2  1  0.25000  0.25000  0.06585  1
