CIF file written using JARVIS-Tools package.
data_Li4VF6
_symmetry_space_group_name_H-M  'P2_1/c'
_cell_length_a       5.19823
_cell_length_b       8.86517
_cell_length_c       5.96456
_cell_angle_alpha    90
_cell_angle_beta     121.914
_cell_angle_gamma    90

_symmetry_Int_Tables_number  14
_chemical_formula_structural  Li4VF6
_chemical_formula_sum  Li8V2F2
_cell_volume  233.3181322898315
_cell_formula_units_Z  2
loop_
  _symmetry_equiv_pos_site_id
 _symmetry_equiv_pos_as_xyz
 1  'x, y, z'
loop_
 _atom_site_type_symbol
 _atom_site_label
 _atom_site_symmetry_multiplicity
 _atom_site_fract_x
 _atom_site_fract_y
 _atom_site_fract_z
 _atom_site_fract_occupancy
 F  F1  1  0.54716  0.17651  0.28797  1
 F  F2  1  0.52906  0.48628  0.29025  1
 F  F3  1  0.47094  0.51372  0.70975  1
 F  F4  1  0.45284  0.82349  0.71203  1
 F  F5  1  -0.00236  0.33130  0.74678  1
 F  F6  1  0.49764  0.16870  0.74678  1
 F  F7  1  0.95284  0.67651  0.71203  1
 F  F8  1  0.04716  0.32349  0.28797  1
 F  F9  1  0.02906  0.01372  0.29025  1
 F  F10  1  0.00236  0.66870  0.25322  1
 F  F11  1  0.50236  0.83130  0.25322  1
 F  F12  1  0.97094  0.98628  0.70975  1
 Li  Li1  1  0.75592  0.16581  0.10451  1
 Li  Li2  1  0.25592  0.33419  0.10451  1
 Li  Li3  1  0.93000  0.84009  0.40605  1
 Li  Li4  1  0.43000  0.65991  0.40605  1
 Li  Li5  1  0.57000  0.34009  0.59395  1
 Li  Li6  1  0.07000  0.15991  0.59395  1
 Li  Li7  1  0.74408  0.66581  0.89549  1
 Li  Li8  1  0.24408  0.83419  0.89549  1
 V  V1  1  -0.00000  0.50000  0.50000  1
 V  V2  1  0.50000  0.00000  0.50000  1
