CIF file written using JARVIS-Tools package.
data_AgAsSe
_symmetry_space_group_name_H-M  'Pnma'
_cell_length_a       4.10967
_cell_length_b       6.19468
_cell_length_c       12.3301
_cell_angle_alpha    90
_cell_angle_beta     90
_cell_angle_gamma    90

_symmetry_Int_Tables_number  62
_chemical_formula_structural  AgAsSe
_chemical_formula_sum  Ag4As4Se4
_cell_volume  313.90120579888423
_cell_formula_units_Z  4
loop_
  _symmetry_equiv_pos_site_id
 _symmetry_equiv_pos_as_xyz
 1  'x, y, z'
loop_
 _atom_site_type_symbol
 _atom_site_label
 _atom_site_symmetry_multiplicity
 _atom_site_fract_x
 _atom_site_fract_y
 _atom_site_fract_z
 _atom_site_fract_occupancy
 Ag  Ag1  1  0.75238  0.92719  0.83845  1
 Ag  Ag2  1  0.75238  0.57281  0.33845  1
 Ag  Ag3  1  0.25238  0.42719  0.66155  1
 Ag  Ag4  1  0.25238  0.07281  0.16155  1
 As  As1  1  0.75226  0.87417  0.48534  1
 As  As2  1  0.75226  0.62583  0.98534  1
 As  As3  1  0.25226  0.37417  0.01466  1
 As  As4  1  0.25226  0.12583  0.51466  1
 Se  Se1  1  0.75236  0.80720  0.15839  1
 Se  Se2  1  0.75236  0.69280  0.65839  1
 Se  Se3  1  0.25236  0.30720  0.34161  1
 Se  Se4  1  0.25236  0.19280  0.84161  1
