CIF file written using JARVIS-Tools package.
data_TiSnP2O8
_symmetry_space_group_name_H-M  'P2_1/m'
_cell_length_a       10.4582
_cell_length_b       6.3074
_cell_length_c       4.96185
_cell_angle_alpha    90
_cell_angle_beta     80.4128
_cell_angle_gamma    90

_symmetry_Int_Tables_number  11
_chemical_formula_structural  TiSnP2O8
_chemical_formula_sum  Ti2Sn2P4O6
_cell_volume  322.7323794651886
_cell_formula_units_Z  2
loop_
  _symmetry_equiv_pos_site_id
 _symmetry_equiv_pos_as_xyz
 1  'x, y, z'
loop_
 _atom_site_type_symbol
 _atom_site_label
 _atom_site_symmetry_multiplicity
 _atom_site_fract_x
 _atom_site_fract_y
 _atom_site_fract_z
 _atom_site_fract_occupancy
 O  O1  1  0.68988  0.06836  0.42564  1
 O  O2  1  0.04894  0.75000  0.60043  1
 O  O3  1  0.13023  0.25000  0.67817  1
 O  O4  1  0.15737  0.04714  0.22620  1
 O  O5  1  0.86977  0.75000  0.32183  1
 O  O6  1  0.31012  0.93164  0.57436  1
 O  O7  1  0.31012  0.56836  0.57436  1
 O  O8  1  0.15737  0.45286  0.22620  1
 O  O9  1  0.47433  0.25000  0.35469  1
 O  O10  1  0.52567  0.75000  0.64531  1
 O  O11  1  0.66737  0.25000  0.97721  1
 O  O12  1  0.95106  0.25000  0.39957  1
 O  O13  1  0.68988  0.43164  0.42564  1
 O  O14  1  0.84263  0.54714  0.77380  1
 O  O15  1  0.84263  0.95286  0.77380  1
 O  O16  1  0.33263  0.75000  0.02279  1
 P  P1  1  0.89847  0.75000  0.61312  1
 P  P2  1  0.61862  0.25000  0.28959  1
 P  P3  1  0.38138  0.75000  0.71041  1
 P  P4  1  0.10153  0.25000  0.38688  1
 Sn  Sn1  1  0.68148  0.75000  0.19685  1
 Sn  Sn2  1  0.31852  0.25000  0.80315  1
 Ti  Ti1  1  0.79469  0.25000  0.64888  1
 Ti  Ti2  1  0.20531  0.75000  0.35112  1
