CIF file written using JARVIS-Tools package.
data_CaReN3
_symmetry_space_group_name_H-M  'C2/c'
_cell_length_a       6.22924
_cell_length_b       7.32437
_cell_length_c       7.32437
_cell_angle_alpha    96.7803
_cell_angle_beta     104.779
_cell_angle_gamma    75.2213

_symmetry_Int_Tables_number  15
_chemical_formula_structural  CaReN3
_chemical_formula_sum  Ca4Re4N2
_cell_volume  311.9292179151984
_cell_formula_units_Z  4
loop_
  _symmetry_equiv_pos_site_id
 _symmetry_equiv_pos_as_xyz
 1  'x, y, z'
loop_
 _atom_site_type_symbol
 _atom_site_label
 _atom_site_symmetry_multiplicity
 _atom_site_fract_x
 _atom_site_fract_y
 _atom_site_fract_z
 _atom_site_fract_occupancy
 Ca  Ca1  1  0.75000  0.91536  0.91536  1
 Ca  Ca2  1  0.75000  0.30446  0.30446  1
 Ca  Ca3  1  0.25000  0.08464  0.08464  1
 Ca  Ca4  1  0.25000  0.69554  0.69554  1
 N  N1  1  0.96094  0.36112  0.65645  1
 N  N2  1  0.66164  0.61548  0.88784  1
 N  N3  1  0.15884  0.77097  0.00735  1
 N  N4  1  0.84116  0.22903  0.99265  1
 N  N5  1  0.34116  0.00735  0.77097  1
 N  N6  1  0.83836  0.88784  0.61548  1
 N  N7  1  0.16164  0.11216  0.38452  1
 N  N8  1  0.33836  0.38452  0.11216  1
 N  N9  1  0.03906  0.63888  0.34355  1
 N  N10  1  0.53906  0.65645  0.36112  1
 N  N11  1  0.65884  0.99265  0.22903  1
 N  N12  1  0.46094  0.34355  0.63888  1
 Re  Re1  1  0.76190  0.79988  0.38076  1
 Re  Re2  1  0.73810  0.38076  0.79988  1
 Re  Re3  1  0.23810  0.20012  0.61924  1
 Re  Re4  1  0.26190  0.61924  0.20012  1
