CIF file written using JARVIS-Tools package.
data_CaB2H8
_symmetry_space_group_name_H-M  'P4_2/m'
_cell_length_a       6.6819
_cell_length_b       6.6819
_cell_length_c       4.37437
_cell_angle_alpha    90
_cell_angle_beta     90
_cell_angle_gamma    90

_symmetry_Int_Tables_number  84
_chemical_formula_structural  CaB2H8
_chemical_formula_sum  Ca2B4H6
_cell_volume  195.30609514282986
_cell_formula_units_Z  2
loop_
  _symmetry_equiv_pos_site_id
 _symmetry_equiv_pos_as_xyz
 1  'x, y, z'
loop_
 _atom_site_type_symbol
 _atom_site_label
 _atom_site_symmetry_multiplicity
 _atom_site_fract_x
 _atom_site_fract_y
 _atom_site_fract_z
 _atom_site_fract_occupancy
 B  B1  1  0.22050  0.31516  0.02254  1
 B  B2  1  0.77950  0.68484  0.02254  1
 B  B3  1  0.31516  0.77950  0.52254  1
 B  B4  1  0.68484  0.22050  0.52254  1
 Ca  Ca1  1  0.50000  0.00000  0.02257  1
 Ca  Ca2  1  0.00000  0.50000  0.52257  1
 H  H1  1  0.16613  0.48973  0.02264  1
 H  H2  1  0.83387  0.51027  0.02264  1
 H  H3  1  0.40290  0.32627  0.02250  1
 H  H4  1  0.59710  0.67373  0.02250  1
 H  H5  1  0.15895  0.22572  0.79534  1
 H  H6  1  0.84101  0.77439  0.24969  1
 H  H7  1  0.15899  0.22561  0.24969  1
 H  H8  1  0.51027  0.16613  0.52264  1
 H  H9  1  0.48973  0.83387  0.52264  1
 H  H10  1  0.22572  0.84105  0.29534  1
 H  H11  1  0.32627  0.59710  0.52250  1
 H  H12  1  0.67373  0.40290  0.52250  1
 H  H13  1  0.22561  0.84101  0.74969  1
 H  H14  1  0.77439  0.15899  0.74969  1
 H  H15  1  0.77428  0.15895  0.29534  1
 H  H16  1  0.84105  0.77428  0.79534  1
