CIF file written using JARVIS-Tools package.
data_Nb3AlC2
_symmetry_space_group_name_H-M  'P6_3/mmc'
_cell_length_a       3.14617
_cell_length_b       3.14617
_cell_length_c       19.2495
_cell_angle_alpha    90
_cell_angle_beta     90
_cell_angle_gamma    120

_symmetry_Int_Tables_number  194
_chemical_formula_structural  Nb3AlC2
_chemical_formula_sum  Nb6Al2C4
_cell_volume  165.0120239736074
_cell_formula_units_Z  2
loop_
  _symmetry_equiv_pos_site_id
 _symmetry_equiv_pos_as_xyz
 1  'x, y, z'
loop_
 _atom_site_type_symbol
 _atom_site_label
 _atom_site_symmetry_multiplicity
 _atom_site_fract_x
 _atom_site_fract_y
 _atom_site_fract_z
 _atom_site_fract_occupancy
 Al  Al1  1  0.00000  0.00000  0.25000  1
 Al  Al2  1  0.00000  0.00000  0.75000  1
 C  C1  1  0.33333  0.66667  0.56941  1
 C  C2  1  0.66667  0.33333  0.06941  1
 C  C3  1  0.33333  0.66667  0.93059  1
 C  C4  1  0.66667  0.33333  0.43059  1
 Nb  Nb1  1  0.66667  0.33333  0.63380  1
 Nb  Nb2  1  0.33333  0.66667  0.13380  1
 Nb  Nb3  1  0.33333  0.66667  0.36620  1
 Nb  Nb4  1  0.66667  0.33333  0.86620  1
 Nb  Nb5  1  0.00000  0.00000  0.50000  1
 Nb  Nb6  1  0.00000  0.00000  0.00000  1
