CIF file written using JARVIS-Tools package.
data_MoAs2O7
_symmetry_space_group_name_H-M  'P2_1/c'
_cell_length_a       4.58083
_cell_length_b       7.7294
_cell_length_c       16.422
_cell_angle_alpha    99.7761
_cell_angle_beta     90
_cell_angle_gamma    90

_symmetry_Int_Tables_number  14
_chemical_formula_structural  MoAs2O7
_chemical_formula_sum  Mo4As8O28
_cell_volume  573.0126003355492
_cell_formula_units_Z  4
loop_
  _symmetry_equiv_pos_site_id
 _symmetry_equiv_pos_as_xyz
 1  'x, y, z'
loop_
 _atom_site_type_symbol
 _atom_site_label
 _atom_site_symmetry_multiplicity
 _atom_site_fract_x
 _atom_site_fract_y
 _atom_site_fract_z
 _atom_site_fract_occupancy
 As  As1  1  0.04046  0.32217  0.55833  1
 As  As2  1  0.54787  0.60823  0.21467  1
 As  As3  1  0.45954  0.82217  0.05833  1
 As  As4  1  0.54046  0.17783  0.94167  1
 As  As5  1  0.95954  0.67783  0.44167  1
 As  As6  1  0.95213  0.10823  0.71467  1
 As  As7  1  0.04787  0.89177  0.28533  1
 As  As8  1  0.45212  0.39177  0.78533  1
 Mo  Mo1  1  0.00076  0.16479  0.09824  1
 Mo  Mo2  1  0.99924  0.83521  0.90176  1
 Mo  Mo3  1  0.50076  0.33521  0.40176  1
 Mo  Mo4  1  0.49924  0.66479  0.59824  1
 O  O1  1  0.28134  0.33028  0.31812  1
 O  O2  1  0.78134  0.16972  0.18188  1
 O  O3  1  0.40396  0.34082  0.89384  1
 O  O4  1  0.24996  0.22174  0.47672  1
 O  O5  1  0.75004  0.77826  0.52328  1
 O  O6  1  0.59604  0.65918  0.10616  1
 O  O7  1  0.24924  0.96698  0.12615  1
 O  O8  1  0.74924  0.53302  0.37385  1
 O  O9  1  0.75076  0.03302  0.87385  1
 O  O10  1  0.25076  0.46698  0.62615  1
 O  O11  1  0.21866  0.83028  0.81813  1
 O  O12  1  0.25004  0.72174  0.97672  1
 O  O13  1  0.71866  0.66972  0.68187  1
 O  O14  1  0.22936  0.33882  0.12323  1
 O  O15  1  0.67236  0.82572  0.26771  1
 O  O16  1  0.82763  0.32572  0.76771  1
 O  O17  1  0.09604  0.84082  0.39384  1
 O  O18  1  0.32763  0.17428  0.73229  1
 O  O19  1  0.74996  0.27826  0.02328  1
 O  O20  1  0.72936  0.16118  0.37677  1
 O  O21  1  0.77064  0.66118  0.87677  1
 O  O22  1  0.27064  0.83882  0.62323  1
 O  O23  1  0.75856  0.92788  0.02427  1
 O  O24  1  0.25856  0.57212  0.47573  1
 O  O25  1  0.24144  0.07212  0.97573  1
 O  O26  1  0.74144  0.42788  0.52427  1
 O  O27  1  0.17237  0.67428  0.23229  1
 O  O28  1  0.90396  0.15918  0.60616  1
