CIF file written using JARVIS-Tools package.
data_Te3W2Se
_symmetry_space_group_name_H-M  'P3m1'
_cell_length_a       3.50544
_cell_length_b       3.50559
_cell_length_c       37.7871
_cell_angle_alpha    90.0003
_cell_angle_beta     90
_cell_angle_gamma    119.999

_symmetry_Int_Tables_number  156
_chemical_formula_structural  Te3W2Se
_chemical_formula_sum  Te6W4Se2
_cell_volume  402.14587361452965
_cell_formula_units_Z  2
loop_
  _symmetry_equiv_pos_site_id
 _symmetry_equiv_pos_as_xyz
 1  'x, y, z'
loop_
 _atom_site_type_symbol
 _atom_site_label
 _atom_site_symmetry_multiplicity
 _atom_site_fract_x
 _atom_site_fract_y
 _atom_site_fract_z
 _atom_site_fract_occupancy
 Se  Se1  1  0.66665  0.33330  0.05437  1
 Se  Se2  1  0.66664  0.33328  0.14017  1
 Te  Te1  1  0.33340  0.66680  0.32650  1
 Te  Te2  1  0.33332  0.66664  0.70801  1
 Te  Te3  1  0.66671  0.33342  0.41984  1
 Te  Te4  1  0.66665  0.33330  0.51734  1
 Te  Te5  1  0.33328  0.66656  0.22902  1
 Te  Te6  1  0.33335  0.66670  0.61058  1
 W  W1  1  0.33330  0.66660  0.09723  1
 W  W2  1  0.33333  0.66666  0.46859  1
 W  W3  1  0.66669  0.33338  0.27775  1
 W  W4  1  0.66668  0.33337  0.65934  1
