CIF file written using JARVIS-Tools package.
data_SrGa2As2
_symmetry_space_group_name_H-M  'P2/m'
_cell_length_a       9.65581
_cell_length_b       4.09697
_cell_length_c       12.626
_cell_angle_alpha    90
_cell_angle_beta     95.5407
_cell_angle_gamma    90

_symmetry_Int_Tables_number  10
_chemical_formula_structural  SrGa2As2
_chemical_formula_sum  Sr4Ga8As8
_cell_volume  497.145134220962
_cell_formula_units_Z  4
loop_
  _symmetry_equiv_pos_site_id
 _symmetry_equiv_pos_as_xyz
 1  'x, y, z'
loop_
 _atom_site_type_symbol
 _atom_site_label
 _atom_site_symmetry_multiplicity
 _atom_site_fract_x
 _atom_site_fract_y
 _atom_site_fract_z
 _atom_site_fract_occupancy
 As  As1  1  0.24207  0.50000  0.52478  1
 As  As2  1  0.75793  0.50000  0.47522  1
 As  As3  1  0.55123  0.00000  0.24515  1
 As  As4  1  0.04864  0.00000  0.25763  1
 As  As5  1  0.44877  0.00000  0.75485  1
 As  As6  1  0.95136  0.00000  0.74237  1
 As  As7  1  0.26063  0.50000  0.03143  1
 As  As8  1  0.73937  0.50000  0.96857  1
 Ga  Ga1  1  0.60713  0.50000  0.78115  1
 Ga  Ga2  1  0.80555  0.50000  0.67635  1
 Ga  Ga3  1  0.39962  0.00000  0.55360  1
 Ga  Ga4  1  0.89214  0.00000  0.93741  1
 Ga  Ga5  1  0.39287  0.50000  0.21885  1
 Ga  Ga6  1  0.10786  0.00000  0.06259  1
 Ga  Ga7  1  0.60038  0.00000  0.44640  1
 Ga  Ga8  1  0.19445  0.50000  0.32365  1
 Sr  Sr1  1  0.79865  0.50000  0.22412  1
 Sr  Sr2  1  0.20135  0.50000  0.77588  1
 Sr  Sr3  1  -0.00000  0.00000  0.50000  1
 Sr  Sr4  1  0.50000  0.00000  -0.00000  1
