CIF file written using JARVIS-Tools package.
data_MoCl4O
_symmetry_space_group_name_H-M  'P-1'
_cell_length_a       6.13257
_cell_length_b       7.20001
_cell_length_c       6.92284
_cell_angle_alpha    103.937
_cell_angle_beta     91.0146
_cell_angle_gamma    107.486

_symmetry_Int_Tables_number  2
_chemical_formula_structural  MoCl4O
_chemical_formula_sum  Mo2Cl8O2
_cell_volume  281.6251152166239
_cell_formula_units_Z  2
loop_
  _symmetry_equiv_pos_site_id
 _symmetry_equiv_pos_as_xyz
 1  'x, y, z'
loop_
 _atom_site_type_symbol
 _atom_site_label
 _atom_site_symmetry_multiplicity
 _atom_site_fract_x
 _atom_site_fract_y
 _atom_site_fract_z
 _atom_site_fract_occupancy
 Cl  Cl1  1  0.63449  0.49086  0.72989  1
 Cl  Cl2  1  0.17554  0.67039  0.88991  1
 Cl  Cl3  1  0.82446  0.32961  0.11009  1
 Cl  Cl4  1  0.36551  0.50914  0.27011  1
 Cl  Cl5  1  0.81089  0.89184  0.14739  1
 Cl  Cl6  1  0.34280  0.06626  0.31520  1
 Cl  Cl7  1  0.18911  0.10816  0.85261  1
 Cl  Cl8  1  0.65720  0.93374  0.68480  1
 Mo  Mo1  1  0.07606  0.22277  0.27175  1
 Mo  Mo2  1  0.92394  0.77723  0.72826  1
 O  O1  1  0.99909  0.72485  0.49645  1
 O  O2  1  0.00091  0.27515  0.50355  1
