CIF file written using JARVIS-Tools package.
data_Zr6BI12
_symmetry_space_group_name_H-M  'R-3'
_cell_length_a       9.10738
_cell_length_b       9.10738
_cell_length_c       9.10738
_cell_angle_alpha    107.287
_cell_angle_beta     107.287
_cell_angle_gamma    107.287

_symmetry_Int_Tables_number  148
_chemical_formula_structural  Zr6BI12
_chemical_formula_sum  Zr6BI2
_cell_volume  624.1271650584429
_cell_formula_units_Z  1
loop_
  _symmetry_equiv_pos_site_id
 _symmetry_equiv_pos_as_xyz
 1  'x, y, z'
loop_
 _atom_site_type_symbol
 _atom_site_label
 _atom_site_symmetry_multiplicity
 _atom_site_fract_x
 _atom_site_fract_y
 _atom_site_fract_z
 _atom_site_fract_occupancy
 B  B1  1  0.00000  0.00000  0.00000  1
 I  I1  1  0.92075  0.77024  0.31192  1
 I  I2  1  0.31192  0.92075  0.77024  1
 I  I3  1  0.22976  0.68808  0.07925  1
 I  I4  1  0.77024  0.31192  0.92075  1
 I  I5  1  0.62197  0.85086  0.54610  1
 I  I6  1  0.14914  0.45390  0.37803  1
 I  I7  1  0.54610  0.62197  0.85086  1
 I  I8  1  0.45390  0.37803  0.14914  1
 I  I9  1  0.68808  0.07925  0.22976  1
 I  I10  1  0.37803  0.14914  0.45390  1
 I  I11  1  0.85086  0.54610  0.62197  1
 I  I12  1  0.07925  0.22976  0.68808  1
 Zr  Zr1  1  0.28046  0.03016  0.09307  1
 Zr  Zr2  1  0.90693  0.71954  0.96984  1
 Zr  Zr3  1  0.96984  0.90693  0.71954  1
 Zr  Zr4  1  0.03016  0.09307  0.28046  1
 Zr  Zr5  1  0.09307  0.28046  0.03016  1
 Zr  Zr6  1  0.71954  0.96984  0.90693  1
