CIF file written using JARVIS-Tools package.
data_LiMnPO4
_symmetry_space_group_name_H-M  'Pna2_1'
_cell_length_a       5.06896
_cell_length_b       6.80851
_cell_length_c       10.229
_cell_angle_alpha    90
_cell_angle_beta     90
_cell_angle_gamma    90

_symmetry_Int_Tables_number  33
_chemical_formula_structural  LiMnPO4
_chemical_formula_sum  Li4Mn4P4O6
_cell_volume  353.0223630651404
_cell_formula_units_Z  4
loop_
  _symmetry_equiv_pos_site_id
 _symmetry_equiv_pos_as_xyz
 1  'x, y, z'
loop_
 _atom_site_type_symbol
 _atom_site_label
 _atom_site_symmetry_multiplicity
 _atom_site_fract_x
 _atom_site_fract_y
 _atom_site_fract_z
 _atom_site_fract_occupancy
 Li  Li1  1  0.75363  0.50417  0.15531  1
 Li  Li2  1  0.25363  0.00417  0.34469  1
 Li  Li3  1  0.75363  0.99583  0.65531  1
 Li  Li4  1  0.25363  0.49583  0.84469  1
 Mn  Mn1  1  0.75620  0.00442  0.15594  1
 Mn  Mn2  1  0.25620  0.50442  0.34406  1
 Mn  Mn3  1  0.75620  0.49558  0.65594  1
 Mn  Mn4  1  0.25620  0.99558  0.84406  1
 O  O1  1  0.94755  0.26252  0.12014  1
 O  O2  1  0.87811  0.94096  0.34335  1
 O  O3  1  0.86022  0.56732  0.34039  1
 O  O4  1  0.80864  0.74718  0.05459  1
 O  O5  1  0.37811  0.44096  0.15665  1
 O  O6  1  0.44755  0.73748  0.87986  1
 O  O7  1  0.30864  0.24718  0.44541  1
 O  O8  1  0.36022  0.06732  0.15961  1
 O  O9  1  0.80864  0.75282  0.55459  1
 O  O10  1  0.86022  0.93268  0.84039  1
 O  O11  1  0.37811  0.05904  0.65665  1
 O  O12  1  0.36022  0.43268  0.65961  1
 O  O13  1  0.44755  0.76252  0.37986  1
 O  O14  1  0.87811  0.55904  0.84335  1
 O  O15  1  0.94755  0.23748  0.62014  1
 O  O16  1  0.30864  0.25282  0.94541  1
 P  P1  1  0.24981  0.25721  0.09404  1
 P  P2  1  0.74981  0.75721  0.40596  1
 P  P3  1  0.24981  0.24279  0.59404  1
 P  P4  1  0.74981  0.74279  0.90596  1
