CIF file written using JARVIS-Tools package.
data_YbPm3
_symmetry_space_group_name_H-M  'P6_3/mmc'
_cell_length_a       7.28556
_cell_length_b       7.28556
_cell_length_c       5.83687
_cell_angle_alpha    90
_cell_angle_beta     90
_cell_angle_gamma    120

_symmetry_Int_Tables_number  194
_chemical_formula_structural  YbPm3
_chemical_formula_sum  Yb2Pm6
_cell_volume  268.3099428968901
_cell_formula_units_Z  2
loop_
  _symmetry_equiv_pos_site_id
 _symmetry_equiv_pos_as_xyz
 1  'x, y, z'
loop_
 _atom_site_type_symbol
 _atom_site_label
 _atom_site_symmetry_multiplicity
 _atom_site_fract_x
 _atom_site_fract_y
 _atom_site_fract_z
 _atom_site_fract_occupancy
 Pm  Pm1  1  0.67045  0.83523  0.25000  1
 Pm  Pm2  1  0.16477  0.83523  0.25000  1
 Pm  Pm3  1  0.16477  0.32955  0.25000  1
 Pm  Pm4  1  0.32955  0.16477  0.75000  1
 Pm  Pm5  1  0.83523  0.16477  0.75000  1
 Pm  Pm6  1  0.83523  0.67045  0.75000  1
 Yb  Yb1  1  0.33333  0.66667  0.75000  1
 Yb  Yb2  1  0.66667  0.33333  0.25000  1
