CIF file written using JARVIS-Tools package.
data_TmAl3C3
_symmetry_space_group_name_H-M  'P6_3/mmc'
_cell_length_a       3.41222
_cell_length_b       3.41222
_cell_length_c       17.2276
_cell_angle_alpha    90
_cell_angle_beta     90
_cell_angle_gamma    120

_symmetry_Int_Tables_number  194
_chemical_formula_structural  TmAl3C3
_chemical_formula_sum  Tm2Al6C6
_cell_volume  173.71226331473454
_cell_formula_units_Z  2
loop_
  _symmetry_equiv_pos_site_id
 _symmetry_equiv_pos_as_xyz
 1  'x, y, z'
loop_
 _atom_site_type_symbol
 _atom_site_label
 _atom_site_symmetry_multiplicity
 _atom_site_fract_x
 _atom_site_fract_y
 _atom_site_fract_z
 _atom_site_fract_occupancy
 Al  Al1  1  0.33333  0.66667  0.13237  1
 Al  Al2  1  0.66667  0.33333  0.25000  1
 Al  Al3  1  0.33333  0.66667  0.36763  1
 Al  Al4  1  0.66667  0.33333  0.63237  1
 Al  Al5  1  0.33333  0.66667  0.75000  1
 Al  Al6  1  0.66667  0.33333  0.86763  1
 C  C1  1  0.66667  0.33333  0.09108  1
 C  C2  1  0.33333  0.66667  0.25000  1
 C  C3  1  0.66667  0.33333  0.40892  1
 C  C4  1  0.33333  0.66667  0.59108  1
 C  C5  1  0.66667  0.33333  0.75000  1
 C  C6  1  0.33333  0.66667  0.90892  1
 Tm  Tm1  1  0.00000  0.00000  0.00000  1
 Tm  Tm2  1  0.00000  0.00000  0.50000  1
