CIF file written using JARVIS-Tools package.
data_Li2CrFeP2O8
_symmetry_space_group_name_H-M  'P2_1/m'
_cell_length_a       4.67081
_cell_length_b       5.84335
_cell_length_c       9.92079
_cell_angle_alpha    90
_cell_angle_beta     90.4026
_cell_angle_gamma    90

_symmetry_Int_Tables_number  11
_chemical_formula_structural  Li2CrFeP2O8
_chemical_formula_sum  Li4Cr2Fe2P4O6
_cell_volume  270.7633649916088
_cell_formula_units_Z  2
loop_
  _symmetry_equiv_pos_site_id
 _symmetry_equiv_pos_as_xyz
 1  'x, y, z'
loop_
 _atom_site_type_symbol
 _atom_site_label
 _atom_site_symmetry_multiplicity
 _atom_site_fract_x
 _atom_site_fract_y
 _atom_site_fract_z
 _atom_site_fract_occupancy
 Cr  Cr1  1  0.49085  0.75000  0.23098  1
 Cr  Cr2  1  0.50915  0.25000  0.76902  1
 Fe  Fe1  1  0.98948  0.25000  0.26965  1
 Fe  Fe2  1  0.01052  0.75000  0.73035  1
 Li  Li1  1  0.00000  0.00000  0.00000  1
 Li  Li2  1  0.00000  0.50000  0.00000  1
 Li  Li3  1  0.50000  0.00000  0.50000  1
 Li  Li4  1  0.50000  0.50000  0.50000  1
 O  O1  1  0.75100  0.25000  0.09465  1
 O  O2  1  0.77941  0.96222  0.33142  1
 O  O3  1  0.77941  0.53778  0.33142  1
 O  O4  1  0.70614  0.75000  0.05019  1
 O  O5  1  0.28444  0.03795  0.16777  1
 O  O6  1  0.24900  0.75000  0.90535  1
 O  O7  1  0.20552  0.25000  0.44931  1
 O  O8  1  0.28444  0.46205  0.16777  1
 O  O9  1  0.79448  0.75000  0.55069  1
 O  O10  1  0.71556  0.53795  0.83223  1
 O  O11  1  0.22059  0.03778  0.66858  1
 O  O12  1  0.22059  0.46222  0.66858  1
 O  O13  1  0.24699  0.75000  0.40469  1
 O  O14  1  0.71556  0.96205  0.83223  1
 O  O15  1  0.75301  0.25000  0.59531  1
 O  O16  1  0.29386  0.25000  0.94981  1
 P  P1  1  0.42302  0.25000  0.09483  1
 P  P2  1  0.91815  0.75000  0.40645  1
 P  P3  1  0.08185  0.25000  0.59355  1
 P  P4  1  0.57698  0.75000  0.90517  1
