CIF file written using JARVIS-Tools package.
data_Tl3Cr
_symmetry_space_group_name_H-M  'P6_3/mmc'
_cell_length_a       6.75818
_cell_length_b       6.75818
_cell_length_c       5.29456
_cell_angle_alpha    90
_cell_angle_beta     90
_cell_angle_gamma    120

_symmetry_Int_Tables_number  194
_chemical_formula_structural  Tl3Cr
_chemical_formula_sum  Tl6Cr2
_cell_volume  209.42121030214636
_cell_formula_units_Z  2
loop_
  _symmetry_equiv_pos_site_id
 _symmetry_equiv_pos_as_xyz
 1  'x, y, z'
loop_
 _atom_site_type_symbol
 _atom_site_label
 _atom_site_symmetry_multiplicity
 _atom_site_fract_x
 _atom_site_fract_y
 _atom_site_fract_z
 _atom_site_fract_occupancy
 Cr  Cr1  1  0.33333  0.66667  0.25000  1
 Cr  Cr2  1  0.66667  0.33333  0.75000  1
 Tl  Tl1  1  0.17203  0.82797  0.75000  1
 Tl  Tl2  1  0.34406  0.17203  0.25000  1
 Tl  Tl3  1  0.82797  0.65594  0.25000  1
 Tl  Tl4  1  0.82797  0.17203  0.25000  1
 Tl  Tl5  1  0.65594  0.82797  0.75000  1
 Tl  Tl6  1  0.17203  0.34406  0.75000  1
