CIF file written using JARVIS-Tools package.
data_AgPtO2
_symmetry_space_group_name_H-M  'C2/m'
_cell_length_a       3.11187
_cell_length_b       5.58852
_cell_length_c       6.46994
_cell_angle_alpha    94.6515
_cell_angle_beta     89.9999
_cell_angle_gamma    106.166

_symmetry_Int_Tables_number  12
_chemical_formula_structural  AgPtO2
_chemical_formula_sum  Ag2Pt2O4
_cell_volume  107.68223730827367
_cell_formula_units_Z  2
loop_
  _symmetry_equiv_pos_site_id
 _symmetry_equiv_pos_as_xyz
 1  'x, y, z'
loop_
 _atom_site_type_symbol
 _atom_site_label
 _atom_site_symmetry_multiplicity
 _atom_site_fract_x
 _atom_site_fract_y
 _atom_site_fract_z
 _atom_site_fract_occupancy
 Ag  Ag1  1  0.36059  0.72117  0.55101  1
 Ag  Ag2  1  0.63941  0.27883  0.44899  1
 O  O1  1  0.31707  0.63414  0.87091  1
 O  O2  1  0.56862  0.13725  0.75098  1
 O  O3  1  0.43138  0.86275  0.24902  1
 O  O4  1  0.68293  0.36586  0.12909  1
 Pt  Pt1  1  0.88437  0.76873  0.05644  1
 Pt  Pt2  1  0.11563  0.23127  0.94356  1
