CIF file written using JARVIS-Tools package.
data_Lu4CoB13
_symmetry_space_group_name_H-M  'P4/mnc'
_cell_length_a       7.20337
_cell_length_b       7.20337
_cell_length_c       6.77791
_cell_angle_alpha    90
_cell_angle_beta     90
_cell_angle_gamma    90

_symmetry_Int_Tables_number  128
_chemical_formula_structural  Lu4CoB13
_chemical_formula_sum  Lu8Co2B26
_cell_volume  351.6960448904114
_cell_formula_units_Z  2
loop_
  _symmetry_equiv_pos_site_id
 _symmetry_equiv_pos_as_xyz
 1  'x, y, z'
loop_
 _atom_site_type_symbol
 _atom_site_label
 _atom_site_symmetry_multiplicity
 _atom_site_fract_x
 _atom_site_fract_y
 _atom_site_fract_z
 _atom_site_fract_occupancy
 B  B1  1  0.03906  0.82878  0.25557  1
 B  B2  1  0.91037  0.41037  0.75000  1
 B  B3  1  0.91037  0.41037  0.25000  1
 B  B4  1  0.82878  0.96094  0.74443  1
 B  B5  1  0.00000  0.00000  0.50000  1
 B  B6  1  0.53906  0.67122  0.24443  1
 B  B7  1  0.46094  0.32878  0.24443  1
 B  B8  1  0.41037  0.08963  0.25000  1
 B  B9  1  0.67122  0.46094  0.24443  1
 B  B10  1  0.03906  0.82878  0.74443  1
 B  B11  1  0.67122  0.46094  0.75557  1
 B  B12  1  0.32878  0.53906  0.75557  1
 B  B13  1  0.17122  0.03906  0.74443  1
 B  B14  1  0.46094  0.32878  0.75557  1
 B  B15  1  0.53906  0.67122  0.75557  1
 B  B16  1  0.96094  0.17122  0.74443  1
 B  B17  1  0.96094  0.17122  0.25557  1
 B  B18  1  0.82878  0.96094  0.25557  1
 B  B19  1  0.17122  0.03906  0.25557  1
 B  B20  1  0.32878  0.53906  0.24443  1
 B  B21  1  0.41037  0.08963  0.75000  1
 B  B22  1  0.58963  0.91037  0.75000  1
 B  B23  1  0.08963  0.58963  0.75000  1
 B  B24  1  0.08963  0.58963  0.25000  1
 B  B25  1  0.58963  0.91037  0.25000  1
 B  B26  1  0.50000  0.50000  0.00000  1
 Co  Co1  1  0.00000  0.00000  0.00000  1
 Co  Co2  1  0.50000  0.50000  0.50000  1
 Lu  Lu1  1  0.31638  0.81878  0.50000  1
 Lu  Lu2  1  0.68362  0.18122  0.50000  1
 Lu  Lu3  1  0.68122  0.18362  0.00000  1
 Lu  Lu4  1  0.18362  0.31878  0.00000  1
 Lu  Lu5  1  0.81638  0.68122  0.00000  1
 Lu  Lu6  1  0.81878  0.68362  0.50000  1
 Lu  Lu7  1  0.18122  0.31638  0.50000  1
 Lu  Lu8  1  0.31878  0.81638  0.00000  1
