CIF file written using JARVIS-Tools package.
data_Na2Zn2Se3
_symmetry_space_group_name_H-M  'C2/c'
_cell_length_a       7.05149
_cell_length_b       10.2908
_cell_length_c       10.2908
_cell_angle_alpha    83.8013
_cell_angle_beta     70.2133
_cell_angle_gamma    70.2134

_symmetry_Int_Tables_number  15
_chemical_formula_structural  Na2Zn2Se3
_chemical_formula_sum  Na8Zn8Se2
_cell_volume  661.1597156632831
_cell_formula_units_Z  4
loop_
  _symmetry_equiv_pos_site_id
 _symmetry_equiv_pos_as_xyz
 1  'x, y, z'
loop_
 _atom_site_type_symbol
 _atom_site_label
 _atom_site_symmetry_multiplicity
 _atom_site_fract_x
 _atom_site_fract_y
 _atom_site_fract_z
 _atom_site_fract_occupancy
 Na  Na1  1  0.75000  0.56900  0.43100  1
 Na  Na2  1  0.25000  0.43100  0.56900  1
 Na  Na3  1  0.75000  0.28137  0.71863  1
 Na  Na4  1  0.25000  0.71863  0.28137  1
 Na  Na5  1  0.64628  0.97535  0.80689  1
 Na  Na6  1  0.85372  0.19311  0.02465  1
 Na  Na7  1  0.35372  0.02465  0.19311  1
 Na  Na8  1  0.14628  0.80689  0.97535  1
 Se  Se1  1  0.43132  0.57588  0.72345  1
 Se  Se2  1  0.06868  0.27655  0.42412  1
 Se  Se3  1  0.55279  0.14784  0.58381  1
 Se  Se4  1  0.55840  0.77241  0.00819  1
 Se  Se5  1  0.44721  0.85216  0.41619  1
 Se  Se6  1  0.05279  0.58381  0.14784  1
 Se  Se7  1  0.93132  0.72345  0.57588  1
 Se  Se8  1  0.94721  0.41619  0.85216  1
 Se  Se9  1  0.56868  0.42412  0.27655  1
 Se  Se10  1  0.05840  0.00819  0.77241  1
 Se  Se11  1  0.94160  0.99181  0.22759  1
 Se  Se12  1  0.44160  0.22759  0.99181  1
 Zn  Zn1  1  0.29835  0.36295  0.20728  1
 Zn  Zn2  1  0.79835  0.20728  0.36295  1
 Zn  Zn3  1  0.20165  0.79272  0.63705  1
 Zn  Zn4  1  0.73893  0.91694  0.45081  1
 Zn  Zn5  1  0.76107  0.54919  0.08306  1
 Zn  Zn6  1  0.23893  0.45081  0.91694  1
 Zn  Zn7  1  0.26107  0.08306  0.54919  1
 Zn  Zn8  1  0.70165  0.63705  0.79272  1
