CIF file written using JARVIS-Tools package.
data_Dy2MgGe2
_symmetry_space_group_name_H-M  'P4/mbm'
_cell_length_a       7.23663
_cell_length_b       7.23663
_cell_length_c       4.23212
_cell_angle_alpha    90
_cell_angle_beta     90
_cell_angle_gamma    90

_symmetry_Int_Tables_number  127
_chemical_formula_structural  Dy2MgGe2
_chemical_formula_sum  Dy4Mg2Ge4
_cell_volume  221.63140166901582
_cell_formula_units_Z  2
loop_
  _symmetry_equiv_pos_site_id
 _symmetry_equiv_pos_as_xyz
 1  'x, y, z'
loop_
 _atom_site_type_symbol
 _atom_site_label
 _atom_site_symmetry_multiplicity
 _atom_site_fract_x
 _atom_site_fract_y
 _atom_site_fract_z
 _atom_site_fract_occupancy
 Dy  Dy1  1  0.17727  0.32273  0.50000  1
 Dy  Dy2  1  0.32273  0.82273  0.50000  1
 Dy  Dy3  1  0.67727  0.17727  0.50000  1
 Dy  Dy4  1  0.82273  0.67727  0.50000  1
 Ge  Ge1  1  0.12442  0.62442  0.00000  1
 Ge  Ge2  1  0.37558  0.12442  0.00000  1
 Ge  Ge3  1  0.62442  0.87558  0.00000  1
 Ge  Ge4  1  0.87558  0.37558  0.00000  1
 Mg  Mg1  1  0.00000  0.00000  0.00000  1
 Mg  Mg2  1  0.50000  0.50000  0.00000  1
