CIF file written using JARVIS-Tools package.
data_SrAgO2
_symmetry_space_group_name_H-M  'C2/m'
_cell_length_a       3.60435
_cell_length_b       6.0102
_cell_length_c       6.0102
_cell_angle_alpha    106.028
_cell_angle_beta     90.3636
_cell_angle_gamma    90.3637

_symmetry_Int_Tables_number  12
_chemical_formula_structural  SrAgO2
_chemical_formula_sum  Sr2Ag2O4
_cell_volume  125.13019461865045
_cell_formula_units_Z  2
loop_
  _symmetry_equiv_pos_site_id
 _symmetry_equiv_pos_as_xyz
 1  'x, y, z'
loop_
 _atom_site_type_symbol
 _atom_site_label
 _atom_site_symmetry_multiplicity
 _atom_site_fract_x
 _atom_site_fract_y
 _atom_site_fract_z
 _atom_site_fract_occupancy
 Ag  Ag1  1  0.50000  -0.00000  -0.00000  1
 Ag  Ag2  1  0.50000  0.50000  0.50000  1
 O  O1  1  0.50000  0.28303  0.71697  1
 O  O2  1  0.50000  0.71697  0.28303  1
 O  O3  1  0.21316  0.24976  0.24976  1
 O  O4  1  0.78684  0.75024  0.75024  1
 Sr  Sr1  1  0.00000  0.50000  -0.00000  1
 Sr  Sr2  1  -0.00000  0.00000  0.50000  1
