CIF file written using JARVIS-Tools package.
data_Nb3SiTe6
_symmetry_space_group_name_H-M  'Pnma'
_cell_length_a       6.44206
_cell_length_b       11.6617
_cell_length_c       14.2387
_cell_angle_alpha    90
_cell_angle_beta     90
_cell_angle_gamma    90

_symmetry_Int_Tables_number  62
_chemical_formula_structural  Nb3SiTe6
_chemical_formula_sum  Nb2Si4Te24
_cell_volume  1069.68757342823
_cell_formula_units_Z  4
loop_
  _symmetry_equiv_pos_site_id
 _symmetry_equiv_pos_as_xyz
 1  'x, y, z'
loop_
 _atom_site_type_symbol
 _atom_site_label
 _atom_site_symmetry_multiplicity
 _atom_site_fract_x
 _atom_site_fract_y
 _atom_site_fract_z
 _atom_site_fract_occupancy
 Nb  Nb1  1  0.16879  0.83510  0.25000  1
 Nb  Nb2  1  0.66879  0.66490  0.25000  1
 Nb  Nb3  1  0.33121  0.33510  0.75000  1
 Nb  Nb4  1  0.83121  0.16490  0.75000  1
 Nb  Nb5  1  0.69593  0.96788  0.25000  1
 Nb  Nb6  1  0.19593  0.53212  0.25000  1
 Nb  Nb7  1  0.80407  0.46788  0.75000  1
 Nb  Nb8  1  0.30407  0.03212  0.75000  1
 Nb  Nb9  1  0.96914  0.31205  0.25000  1
 Nb  Nb10  1  0.46914  0.18795  0.25000  1
 Nb  Nb11  1  0.53086  0.81205  0.75000  1
 Nb  Nb12  1  0.03086  0.68795  0.75000  1
 Si  Si1  1  0.07550  0.07479  0.25000  1
 Si  Si2  1  0.57550  0.42521  0.25000  1
 Si  Si3  1  0.42450  0.57479  0.75000  1
 Si  Si4  1  0.92450  0.92521  0.75000  1
 Te  Te1  1  0.84891  0.81792  0.38414  1
 Te  Te2  1  0.34891  0.68208  0.11586  1
 Te  Te3  1  0.65109  0.31792  0.61586  1
 Te  Te4  1  0.85521  0.50231  0.37904  1
 Te  Te5  1  0.15109  0.18208  0.61586  1
 Te  Te6  1  0.65109  0.31792  0.88414  1
 Te  Te7  1  0.34891  0.68208  0.38414  1
 Te  Te8  1  0.84891  0.81792  0.11586  1
 Te  Te9  1  0.79642  0.15632  0.38267  1
 Te  Te10  1  0.29642  0.34368  0.11733  1
 Te  Te11  1  0.15109  0.18208  0.88414  1
 Te  Te12  1  0.14479  0.49769  0.62096  1
 Te  Te13  1  0.20358  0.84368  0.61733  1
 Te  Te14  1  0.70358  0.65632  0.88267  1
 Te  Te15  1  0.29642  0.34368  0.38267  1
 Te  Te16  1  0.79642  0.15632  0.11733  1
 Te  Te17  1  0.35521  0.99769  0.37904  1
 Te  Te18  1  0.85521  0.50231  0.12096  1
 Te  Te19  1  0.70358  0.65632  0.61733  1
 Te  Te20  1  0.64479  0.00231  0.87904  1
 Te  Te21  1  0.64479  0.00231  0.62096  1
 Te  Te22  1  0.14479  0.49769  0.87904  1
 Te  Te23  1  0.20358  0.84368  0.88267  1
 Te  Te24  1  0.35521  0.99769  0.12096  1
