CIF file written using JARVIS-Tools package.
data_Ta3SiTe6
_symmetry_space_group_name_H-M  'Pnma'
_cell_length_a       6.4275
_cell_length_b       11.5857
_cell_length_c       14.3154
_cell_angle_alpha    90
_cell_angle_beta     90
_cell_angle_gamma    90

_symmetry_Int_Tables_number  62
_chemical_formula_structural  Ta3SiTe6
_chemical_formula_sum  Ta2Si4Te24
_cell_volume  1066.031876034166
_cell_formula_units_Z  4
loop_
  _symmetry_equiv_pos_site_id
 _symmetry_equiv_pos_as_xyz
 1  'x, y, z'
loop_
 _atom_site_type_symbol
 _atom_site_label
 _atom_site_symmetry_multiplicity
 _atom_site_fract_x
 _atom_site_fract_y
 _atom_site_fract_z
 _atom_site_fract_occupancy
 Si  Si1  1  0.92506  0.07520  0.25000  1
 Si  Si2  1  0.57494  0.57520  0.75000  1
 Si  Si3  1  0.07494  0.92480  0.75000  1
 Si  Si4  1  0.42506  0.42480  0.25000  1
 Ta  Ta1  1  0.30401  0.96856  0.25000  1
 Ta  Ta2  1  0.80401  0.53144  0.25000  1
 Ta  Ta3  1  0.19599  0.46856  0.75000  1
 Ta  Ta4  1  0.69599  0.03144  0.75000  1
 Ta  Ta5  1  0.66833  0.33473  0.75000  1
 Ta  Ta6  1  0.53170  0.18741  0.25000  1
 Ta  Ta7  1  0.46830  0.81259  0.75000  1
 Ta  Ta8  1  0.96830  0.68741  0.75000  1
 Ta  Ta9  1  0.33167  0.66527  0.25000  1
 Ta  Ta10  1  0.83167  0.83473  0.25000  1
 Ta  Ta11  1  0.16833  0.16527  0.75000  1
 Ta  Ta12  1  0.03170  0.31259  0.25000  1
 Te  Te1  1  0.85444  0.49676  0.87843  1
 Te  Te2  1  0.79579  0.84233  0.61763  1
 Te  Te3  1  0.29579  0.65767  0.88237  1
 Te  Te4  1  0.70421  0.34233  0.38237  1
 Te  Te5  1  0.29579  0.65767  0.61763  1
 Te  Te6  1  0.34920  0.31881  0.88339  1
 Te  Te7  1  0.70421  0.34233  0.11763  1
 Te  Te8  1  0.79579  0.84233  0.88237  1
 Te  Te9  1  0.35444  0.00324  0.62157  1
 Te  Te10  1  0.20421  0.15767  0.11763  1
 Te  Te11  1  0.20421  0.15767  0.38237  1
 Te  Te12  1  0.65080  0.68119  0.11661  1
 Te  Te13  1  0.14556  0.50324  0.12157  1
 Te  Te14  1  0.64556  0.99676  0.37843  1
 Te  Te15  1  0.35444  0.00324  0.87843  1
 Te  Te16  1  0.85444  0.49676  0.62157  1
 Te  Te17  1  0.84920  0.18119  0.88339  1
 Te  Te18  1  0.34920  0.31881  0.61661  1
 Te  Te19  1  0.64556  0.99676  0.12157  1
 Te  Te20  1  0.15080  0.81881  0.38339  1
 Te  Te21  1  0.15080  0.81881  0.11661  1
 Te  Te22  1  0.65080  0.68119  0.38339  1
 Te  Te23  1  0.14556  0.50324  0.37843  1
 Te  Te24  1  0.84920  0.18119  0.61661  1
