CIF file written using JARVIS-Tools package.
data_AgPtO2
_symmetry_space_group_name_H-M  'P2/m'
_cell_length_a       6.26235
_cell_length_b       3.12384
_cell_length_c       6.41368
_cell_angle_alpha    90
_cell_angle_beta     117.793
_cell_angle_gamma    90

_symmetry_Int_Tables_number  10
_chemical_formula_structural  AgPtO2
_chemical_formula_sum  Ag2Pt2O4
_cell_volume  110.99423683451663
_cell_formula_units_Z  2
loop_
  _symmetry_equiv_pos_site_id
 _symmetry_equiv_pos_as_xyz
 1  'x, y, z'
loop_
 _atom_site_type_symbol
 _atom_site_label
 _atom_site_symmetry_multiplicity
 _atom_site_fract_x
 _atom_site_fract_y
 _atom_site_fract_z
 _atom_site_fract_occupancy
 Ag  Ag1  1  0.50000  0.00000  0.00000  1
 Ag  Ag2  1  0.50000  0.00000  0.50000  1
 O  O1  1  0.76410  0.00000  0.36696  1
 O  O2  1  0.08660  0.50000  0.22927  1
 O  O3  1  0.91340  0.50000  0.77073  1
 O  O4  1  0.23590  0.00000  0.63304  1
 Pt  Pt1  1  0.00000  0.50000  0.50000  1
 Pt  Pt2  1  0.00000  0.00000  0.00000  1
