CIF file written using JARVIS-Tools package.
data_LaOsN3
_symmetry_space_group_name_H-M  'R-3c'
_cell_length_a       5.57387
_cell_length_b       5.57388
_cell_length_c       5.57387
_cell_angle_alpha    60.4592
_cell_angle_beta     60.4591
_cell_angle_gamma    60.4591

_symmetry_Int_Tables_number  167
_chemical_formula_structural  LaOsN3
_chemical_formula_sum  La2Os2N6
_cell_volume  123.7200298718162
_cell_formula_units_Z  2
loop_
  _symmetry_equiv_pos_site_id
 _symmetry_equiv_pos_as_xyz
 1  'x, y, z'
loop_
 _atom_site_type_symbol
 _atom_site_label
 _atom_site_symmetry_multiplicity
 _atom_site_fract_x
 _atom_site_fract_y
 _atom_site_fract_z
 _atom_site_fract_occupancy
 La  La1  1  0.75000  0.75000  0.75000  1
 La  La2  1  0.25000  0.25000  0.25000  1
 N  N1  1  0.29639  0.20361  0.75000  1
 N  N2  1  0.75000  0.29639  0.20361  1
 N  N3  1  0.70361  0.79639  0.25000  1
 N  N4  1  0.20361  0.75000  0.29639  1
 N  N5  1  0.79639  0.25000  0.70361  1
 N  N6  1  0.25000  0.70361  0.79639  1
 Os  Os1  1  0.50000  0.50000  0.50000  1
 Os  Os2  1  0.00000  0.00000  0.00000  1
