CIF file written using JARVIS-Tools package.
data_Sr2MgUO6
_symmetry_space_group_name_H-M  'P2_1/c'
_cell_length_a       5.81693
_cell_length_b       5.85015
_cell_length_c       10.0539
_cell_angle_alpha    90
_cell_angle_beta     125.144
_cell_angle_gamma    90

_symmetry_Int_Tables_number  14
_chemical_formula_structural  Sr2MgUO6
_chemical_formula_sum  Sr4Mg2U2O2
_cell_volume  279.7647621880909
_cell_formula_units_Z  2
loop_
  _symmetry_equiv_pos_site_id
 _symmetry_equiv_pos_as_xyz
 1  'x, y, z'
loop_
 _atom_site_type_symbol
 _atom_site_label
 _atom_site_symmetry_multiplicity
 _atom_site_fract_x
 _atom_site_fract_y
 _atom_site_fract_z
 _atom_site_fract_occupancy
 Mg  Mg1  1  0.50000  0.00000  0.00000  1
 Mg  Mg2  1  0.50000  0.50000  0.50000  1
 O  O1  1  0.25297  0.71601  0.54092  1
 O  O2  1  0.74703  0.21601  0.95908  1
 O  O3  1  0.82691  0.51868  0.75136  1
 O  O4  1  0.25297  0.78399  0.04092  1
 O  O5  1  0.17309  0.48132  0.24864  1
 O  O6  1  0.32328  0.28802  0.03826  1
 O  O7  1  0.74703  0.28399  0.45908  1
 O  O8  1  0.67672  0.78802  0.46174  1
 O  O9  1  0.67672  0.71198  0.96174  1
 O  O10  1  0.82691  0.98132  0.25136  1
 O  O11  1  0.17309  0.01868  0.74864  1
 O  O12  1  0.32328  0.21198  0.53826  1
 Sr  Sr1  1  0.25879  0.46681  0.75140  1
 Sr  Sr2  1  0.74121  0.96681  0.74860  1
 Sr  Sr3  1  0.25879  0.03319  0.25140  1
 Sr  Sr4  1  0.74121  0.53319  0.24860  1
 U  U1  1  -0.00000  0.00000  0.50000  1
 U  U2  1  0.00000  0.50000  0.00000  1
