CIF file written using JARVIS-Tools package.
data_NaAuO2
_symmetry_space_group_name_H-M  'C2/m'
_cell_length_a       3.04934
_cell_length_b       3.63745
_cell_length_c       5.62227
_cell_angle_alpha    80.3703
_cell_angle_beta     74.2654
_cell_angle_gamma    65.2186

_symmetry_Int_Tables_number  12
_chemical_formula_structural  NaAuO2
_chemical_formula_sum  NaAuO2
_cell_volume  54.394149276515634
_cell_formula_units_Z  1
loop_
  _symmetry_equiv_pos_site_id
 _symmetry_equiv_pos_as_xyz
 1  'x, y, z'
loop_
 _atom_site_type_symbol
 _atom_site_label
 _atom_site_symmetry_multiplicity
 _atom_site_fract_x
 _atom_site_fract_y
 _atom_site_fract_z
 _atom_site_fract_occupancy
 Au  Au1  1  0.50000  -0.00000  0.00000  1
 Na  Na1  1  0.50000  0.50000  0.50000  1
 O  O1  1  0.08879  0.07027  0.75214  1
 O  O2  1  0.91121  0.92973  0.24786  1
