CIF file written using JARVIS-Tools package.
data_SrTeO3
_symmetry_space_group_name_H-M  'P2_1/c'
_cell_length_a       6.79342
_cell_length_b       7.25467
_cell_length_c       8.6736
_cell_angle_alpha    90
_cell_angle_beta     126.069
_cell_angle_gamma    90

_symmetry_Int_Tables_number  14
_chemical_formula_structural  SrTeO3
_chemical_formula_sum  Sr4Te4O2
_cell_volume  345.52618063370244
_cell_formula_units_Z  4
loop_
  _symmetry_equiv_pos_site_id
 _symmetry_equiv_pos_as_xyz
 1  'x, y, z'
loop_
 _atom_site_type_symbol
 _atom_site_label
 _atom_site_symmetry_multiplicity
 _atom_site_fract_x
 _atom_site_fract_y
 _atom_site_fract_z
 _atom_site_fract_occupancy
 O  O1  1  0.22784  0.03128  0.93195  1
 O  O2  1  0.08382  0.81212  0.47655  1
 O  O3  1  0.77216  0.96872  0.06805  1
 O  O4  1  0.91618  0.18788  0.52345  1
 O  O5  1  0.08382  0.68788  0.97655  1
 O  O6  1  0.91618  0.31212  0.02345  1
 O  O7  1  0.59896  0.41426  0.18038  1
 O  O8  1  0.59896  0.08574  0.68038  1
 O  O9  1  0.40104  0.58574  0.81962  1
 O  O10  1  0.22784  0.46872  0.43195  1
 O  O11  1  0.77216  0.53128  0.56805  1
 O  O12  1  0.40104  0.91426  0.31962  1
 Sr  Sr1  1  0.86314  0.87312  0.63136  1
 Sr  Sr2  1  0.13686  0.37312  0.86864  1
 Sr  Sr3  1  0.13686  0.12688  0.36864  1
 Sr  Sr4  1  0.86314  0.62688  0.13136  1
 Te  Te1  1  0.37596  0.67015  0.60160  1
 Te  Te2  1  0.62404  0.17015  0.89840  1
 Te  Te3  1  0.62404  0.32985  0.39840  1
 Te  Te4  1  0.37596  0.82985  0.10160  1
