CIF file written using JARVIS-Tools package.
data_PdAuO2
_symmetry_space_group_name_H-M  'C2/m'
_cell_length_a       3.06587
_cell_length_b       6.19697
_cell_length_c       6.42978
_cell_angle_alpha    107.046
_cell_angle_beta     103.793
_cell_angle_gamma    89.9999

_symmetry_Int_Tables_number  12
_chemical_formula_structural  PdAuO2
_chemical_formula_sum  Pd2Au2O4
_cell_volume  113.10365384057559
_cell_formula_units_Z  2
loop_
  _symmetry_equiv_pos_site_id
 _symmetry_equiv_pos_as_xyz
 1  'x, y, z'
loop_
 _atom_site_type_symbol
 _atom_site_label
 _atom_site_symmetry_multiplicity
 _atom_site_fract_x
 _atom_site_fract_y
 _atom_site_fract_z
 _atom_site_fract_occupancy
 Au  Au1  1  0.26411  0.21693  0.52821  1
 Au  Au2  1  0.73589  0.78307  0.47179  1
 O  O1  1  0.56409  0.72144  0.12817  1
 O  O2  1  0.90241  0.83038  0.80481  1
 O  O3  1  0.09759  0.16962  0.19519  1
 O  O4  1  0.43591  0.27856  0.87183  1
 Pd  Pd1  1  0.00000  0.50000  -0.00000  1
 Pd  Pd2  1  0.50000  0.00000  -0.00000  1
