CIF file written using JARVIS-Tools package.
data_BiSbO5
_symmetry_space_group_name_H-M  'P2_1/c'
_cell_length_a       5.32452
_cell_length_b       7.9715
_cell_length_c       9.96905
_cell_angle_alpha    90
_cell_angle_beta     90
_cell_angle_gamma    96.4439

_symmetry_Int_Tables_number  14
_chemical_formula_structural  BiSbO5
_chemical_formula_sum  Bi4Sb4O20
_cell_volume  420.45734672438033
_cell_formula_units_Z  4
loop_
  _symmetry_equiv_pos_site_id
 _symmetry_equiv_pos_as_xyz
 1  'x, y, z'
loop_
 _atom_site_type_symbol
 _atom_site_label
 _atom_site_symmetry_multiplicity
 _atom_site_fract_x
 _atom_site_fract_y
 _atom_site_fract_z
 _atom_site_fract_occupancy
 Bi  Bi1  1  0.15973  0.11821  0.10879  1
 Bi  Bi2  1  0.84027  0.88179  0.89121  1
 Bi  Bi3  1  0.65973  0.61821  0.39121  1
 Bi  Bi4  1  0.34027  0.38179  0.60879  1
 O  O1  1  0.41439  0.36955  0.06910  1
 O  O2  1  0.94375  0.33809  -0.00815  1
 O  O3  1  0.60496  0.69610  0.19279  1
 O  O4  1  0.72039  0.50448  0.57741  1
 O  O5  1  0.83883  0.43863  0.27078  1
 O  O6  1  -0.10496  0.80390  0.69279  1
 O  O7  1  0.44375  0.83809  0.50815  1
 O  O8  1  0.55625  0.16191  0.49185  1
 O  O9  1  0.33883  -0.06137  0.22922  1
 O  O10  1  0.08561  0.13045  0.56910  1
 O  O11  1  0.77961  0.99552  0.07741  1
 O  O12  1  0.39504  0.30390  0.80721  1
 O  O13  1  0.27961  0.49552  0.42259  1
 O  O14  1  0.22039  0.00448  0.92259  1
 O  O15  1  0.05625  0.66191  0.00815  1
 O  O16  1  0.66117  0.06137  0.77078  1
 O  O17  1  0.91439  0.86955  0.43090  1
 O  O18  1  0.58561  0.63045  0.93090  1
 O  O19  1  0.16117  0.56137  0.72922  1
 O  O20  1  0.10496  0.19610  0.30721  1
 Sb  Sb1  1  0.24509  0.48725  0.90962  1
 Sb  Sb2  1  0.75491  0.51275  0.09038  1
 Sb  Sb3  1  0.25491  0.01275  0.40962  1
 Sb  Sb4  1  0.74509  0.98725  0.59038  1
