CIF file written using JARVIS-Tools package.
data_Fe2SiS4
_symmetry_space_group_name_H-M  'P-3m1'
_cell_length_a       5.45985
_cell_length_b       6.75371
_cell_length_c       6.75352
_cell_angle_alpha    59.9991
_cell_angle_beta     89.9986
_cell_angle_gamma    90

_symmetry_Int_Tables_number  164
_chemical_formula_structural  Fe2SiS4
_chemical_formula_sum  Fe4Si2S8
_cell_volume  215.66542057217052
_cell_formula_units_Z  2
loop_
  _symmetry_equiv_pos_site_id
 _symmetry_equiv_pos_as_xyz
 1  'x, y, z'
loop_
 _atom_site_type_symbol
 _atom_site_label
 _atom_site_symmetry_multiplicity
 _atom_site_fract_x
 _atom_site_fract_y
 _atom_site_fract_z
 _atom_site_fract_occupancy
 Fe  Fe1  1  0.50000  0.50000  0.50000  1
 Fe  Fe2  1  0.50000  0.50000  -0.00000  1
 Fe  Fe3  1  0.00000  0.00000  0.00000  1
 Fe  Fe4  1  0.50000  0.00000  0.50000  1
 S  S1  1  0.25120  0.16774  0.66452  1
 S  S2  1  0.68656  0.33333  0.33334  1
 S  S3  1  0.25120  0.16773  0.16775  1
 S  S4  1  0.25120  0.66452  0.16775  1
 S  S5  1  0.74880  0.83227  0.83225  1
 S  S6  1  0.74880  0.33548  0.83225  1
 S  S7  1  0.31344  0.66667  0.66666  1
 S  S8  1  0.74880  0.83226  0.33548  1
 Si  Si1  1  0.08010  0.33334  0.33333  1
 Si  Si2  1  0.91990  0.66666  0.66667  1
