CIF file written using JARVIS-Tools package.
data_MoO3
_symmetry_space_group_name_H-M  'Pc'
_cell_length_a       4.95494
_cell_length_b       5.37584
_cell_length_c       8.47258
_cell_angle_alpha    68.1661
_cell_angle_beta     90
_cell_angle_gamma    90

_symmetry_Int_Tables_number  7
_chemical_formula_structural  MoO3
_chemical_formula_sum  Mo4O2
_cell_volume  209.49422281362445
_cell_formula_units_Z  4
loop_
  _symmetry_equiv_pos_site_id
 _symmetry_equiv_pos_as_xyz
 1  'x, y, z'
loop_
 _atom_site_type_symbol
 _atom_site_label
 _atom_site_symmetry_multiplicity
 _atom_site_fract_x
 _atom_site_fract_y
 _atom_site_fract_z
 _atom_site_fract_occupancy
 Mo  Mo1  1  0.01907  0.95935  0.96836  1
 Mo  Mo2  1  0.48093  0.45935  0.96836  1
 Mo  Mo3  1  0.51913  0.70459  0.47092  1
 Mo  Mo4  1  0.98087  0.20459  0.47092  1
 O  O1  1  0.28437  0.02898  0.44807  1
 O  O2  1  0.21563  0.52898  0.44807  1
 O  O3  1  0.36670  0.58259  0.76424  1
 O  O4  1  0.13330  0.08259  0.76424  1
 O  O5  1  0.72445  0.40819  0.57370  1
 O  O6  1  0.77555  0.90819  0.57370  1
 O  O7  1  0.66048  0.82200  0.27395  1
 O  O8  1  0.83952  0.32200  0.27395  1
 O  O9  1  0.24741  0.68006  0.06783  1
 O  O10  1  0.25259  0.18006  0.06783  1
 O  O11  1  0.73190  0.76305  0.95373  1
 O  O12  1  0.76810  0.26305  0.95373  1
