CIF file written using JARVIS-Tools package.
data_Na2ZnSe2
_symmetry_space_group_name_H-M  'P2_1/c'
_cell_length_a       7.17302
_cell_length_b       7.3732
_cell_length_c       9.12741
_cell_angle_alpha    90
_cell_angle_beta     93.1535
_cell_angle_gamma    90

_symmetry_Int_Tables_number  14
_chemical_formula_structural  Na2ZnSe2
_chemical_formula_sum  Na8Zn4Se8
_cell_volume  481.99980546466395
_cell_formula_units_Z  4
loop_
  _symmetry_equiv_pos_site_id
 _symmetry_equiv_pos_as_xyz
 1  'x, y, z'
loop_
 _atom_site_type_symbol
 _atom_site_label
 _atom_site_symmetry_multiplicity
 _atom_site_fract_x
 _atom_site_fract_y
 _atom_site_fract_z
 _atom_site_fract_occupancy
 Na  Na1  1  0.54000  0.68406  0.67674  1
 Na  Na2  1  0.96000  0.18406  0.32326  1
 Na  Na3  1  0.46000  0.31594  0.32326  1
 Na  Na4  1  0.04000  0.81594  0.67674  1
 Na  Na5  1  0.51221  0.76501  0.05848  1
 Na  Na6  1  0.98779  0.26501  0.94152  1
 Na  Na7  1  0.48779  0.23499  0.94152  1
 Na  Na8  1  0.01221  0.73499  0.05848  1
 Se  Se1  1  0.25546  0.54650  0.85937  1
 Se  Se2  1  0.24454  0.04650  0.14063  1
 Se  Se3  1  0.79989  0.39827  0.59923  1
 Se  Se4  1  0.70011  0.89827  0.40077  1
 Se  Se5  1  0.20011  0.60173  0.40077  1
 Se  Se6  1  0.74454  0.45350  0.14063  1
 Se  Se7  1  0.75546  0.95350  0.85937  1
 Se  Se8  1  0.29989  0.10173  0.59923  1
 Zn  Zn1  1  0.84234  0.59321  0.37167  1
 Zn  Zn2  1  0.65766  0.09321  0.62833  1
 Zn  Zn3  1  0.34234  0.90679  0.37167  1
 Zn  Zn4  1  0.15766  0.40679  0.62833  1
