CIF file written using JARVIS-Tools package.
data_SmGe
_symmetry_space_group_name_H-M  'Cmcm'
_cell_length_a       5.88945
_cell_length_b       5.88945
_cell_length_c       4.04085
_cell_angle_alpha    90
_cell_angle_beta     90
_cell_angle_gamma    43.6717

_symmetry_Int_Tables_number  63
_chemical_formula_structural  SmGe
_chemical_formula_sum  Sm2Ge2
_cell_volume  96.78308465346433
_cell_formula_units_Z  2
loop_
  _symmetry_equiv_pos_site_id
 _symmetry_equiv_pos_as_xyz
 1  'x, y, z'
loop_
 _atom_site_type_symbol
 _atom_site_label
 _atom_site_symmetry_multiplicity
 _atom_site_fract_x
 _atom_site_fract_y
 _atom_site_fract_z
 _atom_site_fract_occupancy
 Ge  Ge1  1  0.41538  0.41538  0.25000  1
 Ge  Ge2  1  0.58462  0.58462  0.75000  1
 Sm  Sm1  1  0.13786  0.13786  0.25000  1
 Sm  Sm2  1  0.86214  0.86214  0.75000  1
