CIF file written using JARVIS-Tools package.
data_Na2Zn2Se3
_symmetry_space_group_name_H-M  'P4_32_12'
_cell_length_a       7.34132
_cell_length_b       7.34132
_cell_length_c       12.0828
_cell_angle_alpha    90
_cell_angle_beta     90
_cell_angle_gamma    90

_symmetry_Int_Tables_number  96
_chemical_formula_structural  Na2Zn2Se3
_chemical_formula_sum  Na8Zn8Se2
_cell_volume  651.2046436895863
_cell_formula_units_Z  4
loop_
  _symmetry_equiv_pos_site_id
 _symmetry_equiv_pos_as_xyz
 1  'x, y, z'
loop_
 _atom_site_type_symbol
 _atom_site_label
 _atom_site_symmetry_multiplicity
 _atom_site_fract_x
 _atom_site_fract_y
 _atom_site_fract_z
 _atom_site_fract_occupancy
 Na  Na1  1  0.94068  0.34465  0.44561  1
 Na  Na2  1  0.05932  0.65535  0.94561  1
 Na  Na3  1  0.84465  0.55932  0.69561  1
 Na  Na4  1  0.15535  0.44068  0.19561  1
 Na  Na5  1  0.65535  0.05932  0.05439  1
 Na  Na6  1  0.34465  0.94068  0.55439  1
 Na  Na7  1  0.55932  0.84465  0.30439  1
 Na  Na8  1  0.44068  0.15535  0.80439  1
 Se  Se1  1  0.77794  0.91470  0.83053  1
 Se  Se2  1  0.22206  0.08530  0.33053  1
 Se  Se3  1  0.72206  0.41470  0.91947  1
 Se  Se4  1  0.71816  0.28184  0.25000  1
 Se  Se5  1  0.91470  0.77794  0.16947  1
 Se  Se6  1  0.08530  0.22206  0.66947  1
 Se  Se7  1  0.41470  0.72206  0.08053  1
 Se  Se8  1  0.27794  0.58530  0.41947  1
 Se  Se9  1  0.58530  0.27794  0.58053  1
 Se  Se10  1  0.21816  0.21816  0.00000  1
 Se  Se11  1  0.28184  0.71816  0.75000  1
 Se  Se12  1  0.78184  0.78184  0.50000  1
 Zn  Zn1  1  0.52310  0.69025  0.88421  1
 Zn  Zn2  1  0.19025  0.97690  0.13421  1
 Zn  Zn3  1  0.47690  0.30975  0.38421  1
 Zn  Zn4  1  0.97690  0.19025  0.86579  1
 Zn  Zn5  1  0.02310  0.80975  0.36579  1
 Zn  Zn6  1  0.30975  0.47690  0.61579  1
 Zn  Zn7  1  0.69025  0.52310  0.11579  1
 Zn  Zn8  1  0.80975  0.02310  0.63421  1
