CIF file written using JARVIS-Tools package.
data_Li4Mn3NbP4O16
_symmetry_space_group_name_H-M  'Pm'
_cell_length_a       4.73416
_cell_length_b       6.14732
_cell_length_c       10.5942
_cell_angle_alpha    90
_cell_angle_beta     90.2796
_cell_angle_gamma    90

_symmetry_Int_Tables_number  6
_chemical_formula_structural  Li4Mn3NbP4O16
_chemical_formula_sum  Li4Mn3NbP4O6
_cell_volume  308.3131086977865
_cell_formula_units_Z  1
loop_
  _symmetry_equiv_pos_site_id
 _symmetry_equiv_pos_as_xyz
 1  'x, y, z'
loop_
 _atom_site_type_symbol
 _atom_site_label
 _atom_site_symmetry_multiplicity
 _atom_site_fract_x
 _atom_site_fract_y
 _atom_site_fract_z
 _atom_site_fract_occupancy
 Li  Li1  1  0.00683  0.24687  0.99171  1
 Li  Li2  1  0.00683  0.75313  0.99171  1
 Li  Li3  1  0.49627  0.74760  0.50196  1
 Li  Li4  1  0.49627  0.25240  0.50196  1
 Mn  Mn1  1  0.02998  0.00000  0.72008  1
 Mn  Mn2  1  0.47499  0.00000  0.21915  1
 Mn  Mn3  1  0.53363  0.50000  0.78082  1
 Nb  Nb1  1  0.97607  0.50000  0.27472  1
 O  O1  1  0.21892  0.29864  0.66371  1
 O  O2  1  0.28604  0.29741  0.15537  1
 O  O3  1  0.26503  0.00000  0.90620  1
 O  O4  1  0.20961  0.50000  0.45949  1
 O  O5  1  0.21892  0.70136  0.66371  1
 O  O6  1  0.76730  0.19982  0.34605  1
 O  O7  1  0.28665  0.50000  0.95098  1
 O  O8  1  0.22961  0.00000  0.40781  1
 O  O9  1  0.71524  0.00000  0.04553  1
 O  O10  1  0.76104  0.50000  0.59748  1
 O  O11  1  0.72143  0.20117  0.84044  1
 O  O12  1  0.74126  0.50000  0.08386  1
 O  O13  1  0.28604  0.70259  0.15537  1
 O  O14  1  0.76730  0.80018  0.34605  1
 O  O15  1  0.72143  0.79883  0.84044  1
 O  O16  1  0.78498  0.00000  0.55052  1
 P  P1  1  0.08499  0.50000  0.59526  1
 P  P2  1  0.41726  0.50000  0.08527  1
 P  P3  1  0.58954  0.00000  0.90958  1
 P  P4  1  0.90654  0.00000  0.41475  1
