CIF file written using JARVIS-Tools package.
data_MgTi3O7
_symmetry_space_group_name_H-M  'Pnma'
_cell_length_a       5.45964
_cell_length_b       10.3969
_cell_length_c       9.92649
_cell_angle_alpha    90
_cell_angle_beta     90
_cell_angle_gamma    90

_symmetry_Int_Tables_number  62
_chemical_formula_structural  MgTi3O7
_chemical_formula_sum  Mg4Ti2O28
_cell_volume  563.4592597890376
_cell_formula_units_Z  4
loop_
  _symmetry_equiv_pos_site_id
 _symmetry_equiv_pos_as_xyz
 1  'x, y, z'
loop_
 _atom_site_type_symbol
 _atom_site_label
 _atom_site_symmetry_multiplicity
 _atom_site_fract_x
 _atom_site_fract_y
 _atom_site_fract_z
 _atom_site_fract_occupancy
 Mg  Mg1  1  0.62015  0.75000  0.93710  1
 Mg  Mg2  1  0.12015  0.25000  0.56290  1
 Mg  Mg3  1  0.37985  0.25000  0.06290  1
 Mg  Mg4  1  0.87985  0.75000  0.43710  1
 O  O1  1  0.26074  0.40655  0.47117  1
 O  O2  1  0.50164  0.38314  0.72452  1
 O  O3  1  0.23926  0.40655  0.97117  1
 O  O4  1  0.99836  0.11686  0.22452  1
 O  O5  1  0.52567  0.12277  0.21732  1
 O  O6  1  0.99836  0.38314  0.22452  1
 O  O7  1  0.49836  0.61686  0.27548  1
 O  O8  1  0.00164  0.88314  0.77548  1
 O  O9  1  0.47433  0.62277  0.78268  1
 O  O10  1  0.76074  0.59345  0.02883  1
 O  O11  1  0.97433  0.37723  0.71732  1
 O  O12  1  0.23926  0.09345  0.97117  1
 O  O13  1  0.02567  0.87723  0.28268  1
 O  O14  1  0.52567  0.37723  0.21732  1
 O  O15  1  0.02567  0.62277  0.28268  1
 O  O16  1  0.47433  0.87723  0.78268  1
 O  O17  1  0.97433  0.12277  0.71732  1
 O  O18  1  0.50164  0.11686  0.72452  1
 O  O19  1  0.26074  0.09345  0.47117  1
 O  O20  1  0.76074  0.90655  0.02883  1
 O  O21  1  0.49836  0.88314  0.27548  1
 O  O22  1  0.73926  0.59345  0.52883  1
 O  O23  1  0.00164  0.61686  0.77548  1
 O  O24  1  0.20051  0.75000  0.54173  1
 O  O25  1  0.73926  0.90655  0.52883  1
 O  O26  1  0.79949  0.25000  0.45827  1
 O  O27  1  0.29949  0.75000  0.04173  1
 O  O28  1  0.70051  0.25000  0.95827  1
 Ti  Ti1  1  0.77486  0.25000  0.28671  1
 Ti  Ti2  1  0.26397  0.02931  0.31366  1
 Ti  Ti3  1  0.76397  0.97069  0.18634  1
 Ti  Ti4  1  0.23603  0.47069  0.81366  1
 Ti  Ti5  1  0.27486  0.75000  0.21329  1
 Ti  Ti6  1  0.23603  0.02931  0.81366  1
 Ti  Ti7  1  0.72514  0.25000  0.78671  1
 Ti  Ti8  1  0.22514  0.75000  0.71329  1
 Ti  Ti9  1  0.76397  0.52931  0.18634  1
 Ti  Ti10  1  0.26397  0.47069  0.31366  1
 Ti  Ti11  1  0.73603  0.97069  0.68634  1
 Ti  Ti12  1  0.73603  0.52931  0.68634  1
