CIF file written using JARVIS-Tools package.
data_CaTlF3
_symmetry_space_group_name_H-M  'Cm'
_cell_length_a       4.47923
_cell_length_b       4.48011
_cell_length_c       4.48017
_cell_angle_alpha    89.8702
_cell_angle_beta     90.1062
_cell_angle_gamma    90.1195

_symmetry_Int_Tables_number  8
_chemical_formula_structural  CaTlF3
_chemical_formula_sum  CaTlF3
_cell_volume  89.90494822192157
_cell_formula_units_Z  1
loop_
  _symmetry_equiv_pos_site_id
 _symmetry_equiv_pos_as_xyz
 1  'x, y, z'
loop_
 _atom_site_type_symbol
 _atom_site_label
 _atom_site_symmetry_multiplicity
 _atom_site_fract_x
 _atom_site_fract_y
 _atom_site_fract_z
 _atom_site_fract_occupancy
 Ca  Ca1  1  0.49124  0.49654  0.49458  1
 F  F1  1  0.47173  -0.00096  0.51544  1
 F  F2  1  0.98892  0.51727  0.51515  1
 F  F3  1  0.47176  0.51763  0.99708  1
 Tl  Tl1  1  0.01636  0.96953  0.96774  1
