CIF file written using JARVIS-Tools package.
data_FeBiSbS4
_symmetry_space_group_name_H-M  'Pnma'
_cell_length_a       3.67203
_cell_length_b       11.5512
_cell_length_c       13.7985
_cell_angle_alpha    90
_cell_angle_beta     90
_cell_angle_gamma    90

_symmetry_Int_Tables_number  62
_chemical_formula_structural  FeBiSbS4
_chemical_formula_sum  Fe4Bi4Sb4S6
_cell_volume  585.2844454593605
_cell_formula_units_Z  4
loop_
  _symmetry_equiv_pos_site_id
 _symmetry_equiv_pos_as_xyz
 1  'x, y, z'
loop_
 _atom_site_type_symbol
 _atom_site_label
 _atom_site_symmetry_multiplicity
 _atom_site_fract_x
 _atom_site_fract_y
 _atom_site_fract_z
 _atom_site_fract_occupancy
 Bi  Bi1  1  0.75000  0.52773  0.10961  1
 Bi  Bi2  1  0.25000  0.97227  0.60961  1
 Bi  Bi3  1  0.25000  0.47227  0.89039  1
 Bi  Bi4  1  0.75000  0.02773  0.39039  1
 Fe  Fe1  1  0.25000  0.32925  0.34282  1
 Fe  Fe2  1  0.75000  0.67075  0.65718  1
 Fe  Fe3  1  0.25000  0.82925  0.15718  1
 Fe  Fe4  1  0.75000  0.17075  0.84282  1
 S  S1  1  0.25000  0.06259  0.90267  1
 S  S2  1  0.75000  0.60566  0.80682  1
 S  S3  1  0.75000  0.71784  0.21420  1
 S  S4  1  0.75000  0.93741  0.09733  1
 S  S5  1  0.25000  0.23526  0.48866  1
 S  S6  1  0.25000  0.89434  0.30682  1
 S  S7  1  0.75000  0.10566  0.69318  1
 S  S8  1  0.25000  0.56259  0.59733  1
 S  S9  1  0.25000  0.73526  0.01134  1
 S  S10  1  0.75000  0.21784  0.28580  1
 S  S11  1  0.25000  0.28216  0.78580  1
 S  S12  1  0.25000  0.39434  0.19318  1
 S  S13  1  0.75000  0.76474  0.51134  1
 S  S14  1  0.75000  0.43741  0.40267  1
 S  S15  1  0.75000  0.26474  0.98866  1
 S  S16  1  0.25000  0.78216  0.71420  1
 Sb  Sb1  1  0.25000  0.64818  0.42025  1
 Sb  Sb2  1  0.75000  0.35182  0.57975  1
 Sb  Sb3  1  0.25000  0.14818  0.07975  1
 Sb  Sb4  1  0.75000  0.85182  0.92025  1
