CIF file written using JARVIS-Tools package.
data_VF4
_symmetry_space_group_name_H-M  'P2_1/c'
_cell_length_a       4.99884
_cell_length_b       5.37036
_cell_length_c       5.3077
_cell_angle_alpha    118.177
_cell_angle_beta     90
_cell_angle_gamma    90

_symmetry_Int_Tables_number  14
_chemical_formula_structural  VF4
_chemical_formula_sum  V2F8
_cell_volume  125.60260972659584
_cell_formula_units_Z  2
loop_
  _symmetry_equiv_pos_site_id
 _symmetry_equiv_pos_as_xyz
 1  'x, y, z'
loop_
 _atom_site_type_symbol
 _atom_site_label
 _atom_site_symmetry_multiplicity
 _atom_site_fract_x
 _atom_site_fract_y
 _atom_site_fract_z
 _atom_site_fract_occupancy
 F  F1  1  0.81442  0.35307  0.10097  1
 F  F2  1  0.31442  0.14693  0.89903  1
 F  F3  1  0.62147  0.36274  0.64949  1
 F  F4  1  0.12147  0.13726  0.35051  1
 F  F5  1  0.37853  0.63726  0.35051  1
 F  F6  1  0.87853  0.86274  0.64949  1
 F  F7  1  0.68558  0.85307  0.10097  1
 F  F8  1  0.18558  0.64693  0.89903  1
 V  V1  1  0.50000  0.50000  0.00000  1
 V  V2  1  0.00000  0.00000  0.00000  1
