CIF file written using JARVIS-Tools package.
data_CaTlCl3
_symmetry_space_group_name_H-M  'Cm'
_cell_length_a       5.35734
_cell_length_b       5.35724
_cell_length_c       5.35754
_cell_angle_alpha    90.7429
_cell_angle_beta     89.2661
_cell_angle_gamma    90.7135

_symmetry_Int_Tables_number  8
_chemical_formula_structural  CaTlCl3
_chemical_formula_sum  CaTlCl3
_cell_volume  153.72693279205745
_cell_formula_units_Z  1
loop_
  _symmetry_equiv_pos_site_id
 _symmetry_equiv_pos_as_xyz
 1  'x, y, z'
loop_
 _atom_site_type_symbol
 _atom_site_label
 _atom_site_symmetry_multiplicity
 _atom_site_fract_x
 _atom_site_fract_y
 _atom_site_fract_z
 _atom_site_fract_occupancy
 Ca  Ca1  1  0.51552  0.49649  0.50160  1
 Cl  Cl1  1  0.53312  -0.00613  0.52048  1
 Cl  Cl2  1  0.01814  0.47850  0.52019  1
 Cl  Cl3  1  0.53396  0.47834  0.00432  1
 Tl  Tl1  1  0.95927  0.05281  0.94341  1
