CIF file written using JARVIS-Tools package.
data_SeBr3
_symmetry_space_group_name_H-M  'I4/mmm'
_cell_length_a       7.62332
_cell_length_b       7.62332
_cell_length_c       7.62332
_cell_angle_alpha    149.674
_cell_angle_beta     149.674
_cell_angle_gamma    43.4197

_symmetry_Int_Tables_number  139
_chemical_formula_structural  SeBr3
_chemical_formula_sum  SeBr3
_cell_volume  112.64070423085964
_cell_formula_units_Z  1
loop_
  _symmetry_equiv_pos_site_id
 _symmetry_equiv_pos_as_xyz
 1  'x, y, z'
loop_
 _atom_site_type_symbol
 _atom_site_label
 _atom_site_symmetry_multiplicity
 _atom_site_fract_x
 _atom_site_fract_y
 _atom_site_fract_z
 _atom_site_fract_occupancy
 Br  Br1  1  0.75000  0.25000  0.50000  1
 Br  Br2  1  0.25000  0.75000  0.50000  1
 Br  Br3  1  0.50000  0.50000  0.00000  1
 Se  Se1  1  0.00000  0.00000  0.00000  1
