CIF file written using JARVIS-Tools package.
data_Co5SbO12
_symmetry_space_group_name_H-M  'C2/m'
_cell_length_a       5.01828
_cell_length_b       5.01844
_cell_length_c       8.78288
_cell_angle_alpha    84.5657
_cell_angle_beta     79.0814
_cell_angle_gamma    60.0011

_symmetry_Int_Tables_number  12
_chemical_formula_structural  Co5SbO12
_chemical_formula_sum  Co5SbO2
_cell_volume  188.08829014143873
_cell_formula_units_Z  1
loop_
  _symmetry_equiv_pos_site_id
 _symmetry_equiv_pos_as_xyz
 1  'x, y, z'
loop_
 _atom_site_type_symbol
 _atom_site_label
 _atom_site_symmetry_multiplicity
 _atom_site_fract_x
 _atom_site_fract_y
 _atom_site_fract_z
 _atom_site_fract_occupancy
 Co  Co1  1  0.16665  0.66671  0.50000  1
 Co  Co2  1  0.66667  0.66666  0.00000  1
 Co  Co3  1  0.33333  0.33334  -0.00000  1
 Co  Co4  1  0.83335  0.33329  0.50000  1
 Co  Co5  1  0.50000  -0.00000  0.50000  1
 O  O1  1  0.96236  0.64726  0.11355  1
 O  O2  1  0.39038  0.64726  0.88645  1
 O  O3  1  0.68490  0.00000  0.88646  1
 O  O4  1  0.53376  0.66694  0.39738  1
 O  O5  1  0.20070  0.33306  0.39738  1
 O  O6  1  0.60962  0.35274  0.11355  1
 O  O7  1  0.79930  0.66694  0.60262  1
 O  O8  1  0.46624  0.33306  0.60262  1
 O  O9  1  0.31510  -0.00000  0.11354  1
 O  O10  1  0.03764  0.35274  0.88645  1
 O  O11  1  0.13143  0.00000  0.60541  1
 O  O12  1  0.86857  -0.00000  0.39459  1
 Sb  Sb1  1  0.00000  0.00000  0.00000  1
