CIF file written using JARVIS-Tools package.
data_SrAuO2
_symmetry_space_group_name_H-M  'C2/m'
_cell_length_a       3.63667
_cell_length_b       6.10137
_cell_length_c       6.10137
_cell_angle_alpha    108.528
_cell_angle_beta     89.9562
_cell_angle_gamma    89.9561

_symmetry_Int_Tables_number  12
_chemical_formula_structural  SrAuO2
_chemical_formula_sum  Sr2Au2O4
_cell_volume  128.3645852660556
_cell_formula_units_Z  2
loop_
  _symmetry_equiv_pos_site_id
 _symmetry_equiv_pos_as_xyz
 1  'x, y, z'
loop_
 _atom_site_type_symbol
 _atom_site_label
 _atom_site_symmetry_multiplicity
 _atom_site_fract_x
 _atom_site_fract_y
 _atom_site_fract_z
 _atom_site_fract_occupancy
 Au  Au1  1  0.50000  -0.00000  -0.00000  1
 Au  Au2  1  0.50000  0.50000  0.50000  1
 O  O1  1  0.50000  0.29314  0.70686  1
 O  O2  1  0.50000  0.70686  0.29314  1
 O  O3  1  0.22355  0.24849  0.24849  1
 O  O4  1  0.77645  0.75151  0.75151  1
 Sr  Sr1  1  -0.00000  0.50000  0.00000  1
 Sr  Sr2  1  -0.00000  0.00000  0.50000  1
