CIF file written using JARVIS-Tools package.
data_TlAgF3
_symmetry_space_group_name_H-M  'Pm-3m'
_cell_length_a       4.37341
_cell_length_b       4.37359
_cell_length_c       4.37364
_cell_angle_alpha    89.999
_cell_angle_beta     89.9994
_cell_angle_gamma    90.0018

_symmetry_Int_Tables_number  221
_chemical_formula_structural  TlAgF3
_chemical_formula_sum  TlAgF3
_cell_volume  83.65684195584326
_cell_formula_units_Z  1
loop_
  _symmetry_equiv_pos_site_id
 _symmetry_equiv_pos_as_xyz
 1  'x, y, z'
loop_
 _atom_site_type_symbol
 _atom_site_label
 _atom_site_symmetry_multiplicity
 _atom_site_fract_x
 _atom_site_fract_y
 _atom_site_fract_z
 _atom_site_fract_occupancy
 Ag  Ag1  1  0.50198  0.49999  0.51199  1
 F  F1  1  0.50202  -0.00001  0.51197  1
 F  F2  1  0.50209  0.50002  0.01198  1
 F  F3  1  0.00199  0.49998  0.51198  1
 Tl  Tl1  1  0.00191  0.00001  0.01209  1
