CIF file written using JARVIS-Tools package.
data_VPd3
_symmetry_space_group_name_H-M  'P6_3/mmc'
_cell_length_a       5.48193
_cell_length_b       5.48193
_cell_length_c       4.49799
_cell_angle_alpha    90
_cell_angle_beta     90
_cell_angle_gamma    120

_symmetry_Int_Tables_number  194
_chemical_formula_structural  VPd3
_chemical_formula_sum  V2Pd6
_cell_volume  117.06206812399236
_cell_formula_units_Z  2
loop_
  _symmetry_equiv_pos_site_id
 _symmetry_equiv_pos_as_xyz
 1  'x, y, z'
loop_
 _atom_site_type_symbol
 _atom_site_label
 _atom_site_symmetry_multiplicity
 _atom_site_fract_x
 _atom_site_fract_y
 _atom_site_fract_z
 _atom_site_fract_occupancy
 Pd  Pd1  1  0.83023  0.16977  0.25000  1
 Pd  Pd2  1  0.83023  0.66046  0.25000  1
 Pd  Pd3  1  0.33954  0.16977  0.25000  1
 Pd  Pd4  1  0.16977  0.83023  0.75000  1
 Pd  Pd5  1  0.16977  0.33954  0.75000  1
 Pd  Pd6  1  0.66046  0.83023  0.75000  1
 V  V1  1  0.66667  0.33333  0.75000  1
 V  V2  1  0.33333  0.66667  0.25000  1
