CIF file written using JARVIS-Tools package.
data_CoSnH12O6F6
_symmetry_space_group_name_H-M  'R-3'
_cell_length_a       6.50913
_cell_length_b       6.50913
_cell_length_c       6.50913
_cell_angle_alpha    95.4094
_cell_angle_beta     95.4094
_cell_angle_gamma    95.4093

_symmetry_Int_Tables_number  148
_chemical_formula_structural  CoSnH12O6F6
_chemical_formula_sum  CoSnH2O6F6
_cell_volume  271.84902392000276
_cell_formula_units_Z  1
loop_
  _symmetry_equiv_pos_site_id
 _symmetry_equiv_pos_as_xyz
 1  'x, y, z'
loop_
 _atom_site_type_symbol
 _atom_site_label
 _atom_site_symmetry_multiplicity
 _atom_site_fract_x
 _atom_site_fract_y
 _atom_site_fract_z
 _atom_site_fract_occupancy
 Co  Co1  1  0.50000  0.50000  0.50000  1
 F  F1  1  0.13415  0.93719  0.27398  1
 F  F2  1  0.72602  0.86585  0.06281  1
 F  F3  1  0.06281  0.72602  0.86585  1
 F  F4  1  0.86585  0.06281  0.72602  1
 F  F5  1  0.27398  0.13415  0.93719  1
 F  F6  1  0.93719  0.27398  0.13415  1
 H  H1  1  0.68772  0.89916  0.54551  1
 H  H2  1  0.34709  0.18260  0.69540  1
 H  H3  1  0.69540  0.34709  0.18260  1
 H  H4  1  0.18260  0.69540  0.34709  1
 H  H5  1  0.81740  0.30459  0.65291  1
 H  H6  1  0.65291  0.81740  0.30459  1
 H  H7  1  0.89916  0.54551  0.68772  1
 H  H8  1  0.54551  0.68772  0.89916  1
 H  H9  1  0.31228  0.10084  0.45449  1
 H  H10  1  0.10084  0.45449  0.31228  1
 H  H11  1  0.45449  0.31228  0.10084  1
 H  H12  1  0.30460  0.65291  0.81740  1
 O  O1  1  0.60267  0.79933  0.44079  1
 O  O2  1  0.55921  0.39733  0.20067  1
 O  O3  1  0.44079  0.60267  0.79933  1
 O  O4  1  0.20067  0.55921  0.39733  1
 O  O5  1  0.79933  0.44079  0.60267  1
 O  O6  1  0.39733  0.20067  0.55921  1
 Sn  Sn1  1  0.00000  0.00000  0.00000  1
