CIF file written using JARVIS-Tools package.
data_PrB2Os2
_symmetry_space_group_name_H-M  'Fddd'
_cell_length_a       5.68062
_cell_length_b       5.68062
_cell_length_c       6.04511
_cell_angle_alpha    108.626
_cell_angle_beta     108.626
_cell_angle_gamma    108.676

_symmetry_Int_Tables_number  70
_chemical_formula_structural  PrB2Os2
_chemical_formula_sum  Pr2B4Os4
_cell_volume  154.59978220363166
_cell_formula_units_Z  2
loop_
  _symmetry_equiv_pos_site_id
 _symmetry_equiv_pos_as_xyz
 1  'x, y, z'
loop_
 _atom_site_type_symbol
 _atom_site_label
 _atom_site_symmetry_multiplicity
 _atom_site_fract_x
 _atom_site_fract_y
 _atom_site_fract_z
 _atom_site_fract_occupancy
 B  B1  1  0.68379  0.31621  0.00000  1
 B  B2  1  0.31621  0.68379  0.00000  1
 B  B3  1  0.93378  0.06622  0.50000  1
 B  B4  1  0.56622  0.43378  0.50000  1
 Os  Os1  1  0.61300  0.11300  0.22599  1
 Os  Os2  1  0.63700  0.63700  0.27401  1
 Os  Os3  1  0.36300  0.36300  0.72599  1
 Os  Os4  1  0.88701  0.38701  0.77401  1
 Pr  Pr1  1  0.00000  0.00000  0.00000  1
 Pr  Pr2  1  0.25000  0.75000  0.50000  1
