CIF file written using JARVIS-Tools package.
data_TlCuCl3
_symmetry_space_group_name_H-M  'Pm-3m'
_cell_length_a       4.83779
_cell_length_b       4.83775
_cell_length_c       4.83769
_cell_angle_alpha    90.0006
_cell_angle_beta     90.0013
_cell_angle_gamma    90.0011

_symmetry_Int_Tables_number  221
_chemical_formula_structural  TlCuCl3
_chemical_formula_sum  TlCuCl3
_cell_volume  113.22147361469689
_cell_formula_units_Z  1
loop_
  _symmetry_equiv_pos_site_id
 _symmetry_equiv_pos_as_xyz
 1  'x, y, z'
loop_
 _atom_site_type_symbol
 _atom_site_label
 _atom_site_symmetry_multiplicity
 _atom_site_fract_x
 _atom_site_fract_y
 _atom_site_fract_z
 _atom_site_fract_occupancy
 Cl  Cl1  1  -0.00001  0.48798  0.50196  1
 Cl  Cl2  1  0.50001  0.98802  0.50202  1
 Cl  Cl3  1  0.50003  0.48795  0.00200  1
 Cu  Cu1  1  0.49998  0.48808  0.50195  1
 Tl  Tl1  1  1.00000  0.98797  0.00207  1
