CIF file written using JARVIS-Tools package.
data_H12C5N2O
_symmetry_space_group_name_H-M  'Pmn2_1'
_cell_length_a       5.39953
_cell_length_b       6.76206
_cell_length_c       8.61556
_cell_angle_alpha    90
_cell_angle_beta     90
_cell_angle_gamma    90

_symmetry_Int_Tables_number  31
_chemical_formula_structural  H12C5N2O
_chemical_formula_sum  H24C0N4O2
_cell_volume  314.5707838107023
_cell_formula_units_Z  2
loop_
  _symmetry_equiv_pos_site_id
 _symmetry_equiv_pos_as_xyz
 1  'x, y, z'
loop_
 _atom_site_type_symbol
 _atom_site_label
 _atom_site_symmetry_multiplicity
 _atom_site_fract_x
 _atom_site_fract_y
 _atom_site_fract_z
 _atom_site_fract_occupancy
 C  C1  1  0.67689  0.31935  0.93677  1
 C  C2  1  0.12470  0.00000  0.93899  1
 C  C3  1  0.32311  0.81935  0.43677  1
 C  C4  1  0.67689  0.68065  0.93677  1
 C  C5  1  0.65083  0.00000  0.57460  1
 C  C6  1  0.87530  0.50000  0.43899  1
 C  C7  1  0.34917  0.50000  0.07460  1
 C  C8  1  0.32311  0.18065  0.43677  1
 C  C9  1  0.64004  0.00000  0.28919  1
 C  C10  1  0.35996  0.50000  0.78919  1
 H  H1  1  0.46892  0.50000  0.17759  1
 H  H2  1  0.78515  0.67815  0.04449  1
 H  H3  1  0.78515  0.32185  0.04449  1
 H  H4  1  0.76685  0.13306  0.57220  1
 H  H5  1  0.48687  0.50000  0.68975  1
 H  H6  1  0.20252  0.17745  0.33439  1
 H  H7  1  0.24523  0.36607  0.78848  1
 H  H8  1  0.20252  0.82255  0.33439  1
 H  H9  1  0.53108  0.00000  0.67759  1
 H  H10  1  0.44309  0.68850  0.43224  1
 H  H11  1  0.21485  0.17815  0.54449  1
 H  H12  1  0.23315  0.63306  0.07220  1
 H  H13  1  0.21485  0.82185  0.54449  1
 H  H14  1  0.55691  0.81150  0.93224  1
 H  H15  1  0.24523  0.63393  0.78848  1
 H  H16  1  0.75477  0.13393  0.28848  1
 H  H17  1  0.75477  0.86607  0.28848  1
 H  H18  1  0.79748  0.32255  0.83439  1
 H  H19  1  0.79748  0.67745  0.83439  1
 H  H20  1  0.55691  0.18850  0.93224  1
 H  H21  1  0.44309  0.31150  0.43224  1
 H  H22  1  0.51313  0.00000  0.18975  1
 H  H23  1  0.76685  0.86694  0.57220  1
 H  H24  1  0.23315  0.36694  0.07220  1
 N  N1  1  0.48521  0.00000  0.43413  1
 N  N2  1  0.14223  0.00000  0.80050  1
 N  N3  1  0.85777  0.50000  0.30050  1
 N  N4  1  0.51479  0.50000  0.93413  1
 O  O1  1  0.10906  0.00000  0.08133  1
 O  O2  1  0.89094  0.50000  0.58133  1
