CIF file written using JARVIS-Tools package.
data_TeWSe
_symmetry_space_group_name_H-M  'P-3m1'
_cell_length_a       3.44411
_cell_length_b       3.44413
_cell_length_c       37.5463
_cell_angle_alpha    90.002
_cell_angle_beta     89.9991
_cell_angle_gamma    120.001

_symmetry_Int_Tables_number  164
_chemical_formula_structural  TeWSe
_chemical_formula_sum  Te4W4Se4
_cell_volume  385.69914085423403
_cell_formula_units_Z  4
loop_
  _symmetry_equiv_pos_site_id
 _symmetry_equiv_pos_as_xyz
 1  'x, y, z'
loop_
 _atom_site_type_symbol
 _atom_site_label
 _atom_site_symmetry_multiplicity
 _atom_site_fract_x
 _atom_site_fract_y
 _atom_site_fract_z
 _atom_site_fract_occupancy
 Se  Se1  1  0.33335  0.66672  0.69975  1
 Se  Se2  1  0.66665  0.33328  0.05171  1
 Se  Se3  1  0.66666  0.33334  0.13914  1
 Se  Se4  1  0.33334  0.66666  0.61231  1
 Te  Te1  1  0.33333  0.66668  0.32857  1
 Te  Te2  1  0.66667  0.33332  0.42288  1
 Te  Te3  1  0.66666  0.33334  0.52241  1
 Te  Te4  1  0.33334  0.66666  0.22905  1
 W  W1  1  0.33332  0.66664  0.09539  1
 W  W2  1  0.33333  0.66666  0.47266  1
 W  W3  1  0.66667  0.33334  0.27880  1
 W  W4  1  0.66668  0.33336  0.65607  1
