CIF file written using JARVIS-Tools package.
data_TaTe2
_symmetry_space_group_name_H-M  'C2/m'
_cell_length_a       3.69044
_cell_length_b       7.71313
_cell_length_c       9.53503
_cell_angle_alpha    110.821
_cell_angle_beta     90
_cell_angle_gamma    103.84

_symmetry_Int_Tables_number  12
_chemical_formula_structural  TaTe2
_chemical_formula_sum  Ta3Te6
_cell_volume  245.23914317081122
_cell_formula_units_Z  3
loop_
  _symmetry_equiv_pos_site_id
 _symmetry_equiv_pos_as_xyz
 1  'x, y, z'
loop_
 _atom_site_type_symbol
 _atom_site_label
 _atom_site_symmetry_multiplicity
 _atom_site_fract_x
 _atom_site_fract_y
 _atom_site_fract_z
 _atom_site_fract_occupancy
 Ta  Ta1  1  0.36303  0.72078  0.70904  1
 Ta  Ta2  1  0.64084  0.27638  0.28952  1
 Ta  Ta3  1  0.00191  0.99858  0.99927  1
 Te  Te1  1  0.35419  0.70313  0.98554  1
 Te  Te2  1  0.64965  0.29403  0.01302  1
 Te  Te3  1  0.70642  0.40762  0.61988  1
 Te  Te4  1  0.99602  0.98676  0.69209  1
 Te  Te5  1  0.00786  0.01040  0.30647  1
 Te  Te6  1  0.29738  0.58955  0.37867  1
