CIF file written using JARVIS-Tools package.
data_InSnBr3
_symmetry_space_group_name_H-M  'R3c'
_cell_length_a       8.27677
_cell_length_b       8.27677
_cell_length_c       7.74784
_cell_angle_alpha    57.7147
_cell_angle_beta     57.7148
_cell_angle_gamma    60

_symmetry_Int_Tables_number  161
_chemical_formula_structural  InSnBr3
_chemical_formula_sum  In2Sn2Br6
_cell_volume  361.81708726947807
_cell_formula_units_Z  2
loop_
  _symmetry_equiv_pos_site_id
 _symmetry_equiv_pos_as_xyz
 1  'x, y, z'
loop_
 _atom_site_type_symbol
 _atom_site_label
 _atom_site_symmetry_multiplicity
 _atom_site_fract_x
 _atom_site_fract_y
 _atom_site_fract_z
 _atom_site_fract_occupancy
 Br  Br1  1  0.66241  0.87138  0.25884  1
 Br  Br2  1  0.20737  0.66241  0.25885  1
 Br  Br3  1  0.87138  0.20737  0.25885  1
 Br  Br4  1  0.70737  0.37138  0.75885  1
 Br  Br5  1  0.37138  0.16241  0.75885  1
 Br  Br6  1  0.16241  0.70736  0.75885  1
 In  In1  1  0.27747  0.27747  0.16760  1
 In  In2  1  0.77747  0.77747  0.66760  1
 Sn  Sn1  1  0.00988  0.00988  -0.02963  1
 Sn  Sn2  1  0.50988  0.50988  0.47037  1
