CIF file written using JARVIS-Tools package.
data_TlGeBr3
_symmetry_space_group_name_H-M  'Cm'
_cell_length_a       5.54735
_cell_length_b       5.54239
_cell_length_c       5.54678
_cell_angle_alpha    87.8049
_cell_angle_beta     92.3625
_cell_angle_gamma    92.1681

_symmetry_Int_Tables_number  8
_chemical_formula_structural  TlGeBr3
_chemical_formula_sum  TlGeBr3
_cell_volume  170.15696857384998
_cell_formula_units_Z  1
loop_
  _symmetry_equiv_pos_site_id
 _symmetry_equiv_pos_as_xyz
 1  'x, y, z'
loop_
 _atom_site_type_symbol
 _atom_site_label
 _atom_site_symmetry_multiplicity
 _atom_site_fract_x
 _atom_site_fract_y
 _atom_site_fract_z
 _atom_site_fract_occupancy
 Br  Br1  1  0.46615  0.02014  0.51970  1
 Br  Br2  1  0.96640  0.52046  0.52084  1
 Br  Br3  1  0.46517  0.52064  0.01960  1
 Ge  Ge1  1  0.49593  0.49219  0.49025  1
 Tl  Tl1  1  0.04635  0.94658  0.93960  1
