CIF file written using JARVIS-Tools package.
data_Li5Mn2Co3O10
_symmetry_space_group_name_H-M  'P1'
_cell_length_a       4.9951
_cell_length_b       5.00271
_cell_length_c       7.60774
_cell_angle_alpha    70.9137
_cell_angle_beta     70.9415
_cell_angle_gamma    80.6151

_symmetry_Int_Tables_number  1
_chemical_formula_structural  Li5Mn2Co3O10
_chemical_formula_sum  Li5Mn2Co3O0
_cell_volume  169.47334451189303
_cell_formula_units_Z  1
loop_
  _symmetry_equiv_pos_site_id
 _symmetry_equiv_pos_as_xyz
 1  'x, y, z'
loop_
 _atom_site_type_symbol
 _atom_site_label
 _atom_site_symmetry_multiplicity
 _atom_site_fract_x
 _atom_site_fract_y
 _atom_site_fract_z
 _atom_site_fract_occupancy
 Co  Co1  1  0.49104  0.98639  0.00106  1
 Co  Co2  1  0.01384  0.70262  0.10571  1
 Co  Co3  1  0.99646  0.30677  0.89585  1
 Li  Li1  1  0.49832  0.39735  0.21335  1
 Li  Li2  1  0.49918  0.78033  0.40863  1
 Li  Li3  1  0.00029  0.50083  0.49933  1
 Li  Li4  1  0.51194  0.58849  0.78805  1
 Li  Li5  1  0.49787  0.21540  0.58871  1
 Mn  Mn1  1  0.00151  0.90067  0.69453  1
 Mn  Mn2  1  0.99501  0.10474  0.30235  1
 O  O1  1  0.22732  0.33544  0.05235  1
 O  O2  1  0.22378  0.13479  0.45485  1
 O  O3  1  0.22647  0.97363  0.84333  1
 O  O4  1  0.77232  0.87020  0.54239  1
 O  O5  1  0.76783  0.65328  0.93075  1
 O  O6  1  0.24797  0.76919  0.25453  1
 O  O7  1  0.22439  0.56368  0.66647  1
 O  O8  1  0.76565  0.43275  0.34332  1
 O  O9  1  0.76487  0.22678  0.76258  1
 O  O10  1  0.77088  0.06348  0.14196  1
