CIF file written using JARVIS-Tools package.
data_V2O5
_symmetry_space_group_name_H-M  'Pmc2_1'
_cell_length_a       3.26368
_cell_length_b       5.50163
_cell_length_c       13.3183
_cell_angle_alpha    90.0051
_cell_angle_beta     90.0017
_cell_angle_gamma    53.6151

_symmetry_Int_Tables_number  26
_chemical_formula_structural  V2O5
_chemical_formula_sum  V4O0
_cell_volume  192.5180376825109
_cell_formula_units_Z  2
loop_
  _symmetry_equiv_pos_site_id
 _symmetry_equiv_pos_as_xyz
 1  'x, y, z'
loop_
 _atom_site_type_symbol
 _atom_site_label
 _atom_site_symmetry_multiplicity
 _atom_site_fract_x
 _atom_site_fract_y
 _atom_site_fract_z
 _atom_site_fract_occupancy
 O  O1  1  0.86759  0.13239  0.88001  1
 O  O2  1  0.13242  0.86760  0.38000  1
 O  O3  1  0.37117  0.62879  0.13621  1
 O  O4  1  0.62882  0.37122  0.63625  1
 O  O5  1  0.88059  0.61939  0.90960  1
 O  O6  1  0.11942  0.38060  0.40962  1
 O  O7  1  0.42854  0.07145  0.04169  1
 O  O8  1  0.57143  0.92858  0.54169  1
 O  O9  1  0.47439  0.02560  0.24078  1
 O  O10  1  0.52563  0.97439  0.74079  1
 V  V1  1  0.48313  0.01689  0.40262  1
 V  V2  1  0.68647  0.81349  0.13905  1
 V  V3  1  0.31352  0.18651  0.63907  1
 V  V4  1  0.51688  -0.01690  0.90262  1
