CIF file written using JARVIS-Tools package.
data_SbPO2F6
_symmetry_space_group_name_H-M  'P-1'
_cell_length_a       5.45317
_cell_length_b       7.34319
_cell_length_c       7.2723
_cell_angle_alpha    87.6423
_cell_angle_beta     78.0416
_cell_angle_gamma    84.3229

_symmetry_Int_Tables_number  2
_chemical_formula_structural  SbPO2F6
_chemical_formula_sum  Sb2P2O4F2
_cell_volume  283.4289270696197
_cell_formula_units_Z  2
loop_
  _symmetry_equiv_pos_site_id
 _symmetry_equiv_pos_as_xyz
 1  'x, y, z'
loop_
 _atom_site_type_symbol
 _atom_site_label
 _atom_site_symmetry_multiplicity
 _atom_site_fract_x
 _atom_site_fract_y
 _atom_site_fract_z
 _atom_site_fract_occupancy
 F  F1  1  0.31555  0.08585  0.75593  1
 F  F2  1  0.38319  0.45251  0.69542  1
 F  F3  1  0.76396  0.74006  0.63590  1
 F  F4  1  0.02607  0.71918  0.86877  1
 F  F5  1  0.72668  0.18330  0.49588  1
 F  F6  1  0.23604  0.25994  0.36410  1
 F  F7  1  0.61681  0.54749  0.30458  1
 F  F8  1  0.84929  0.37180  0.78066  1
 F  F9  1  0.15071  0.62820  0.21934  1
 F  F10  1  0.97393  0.28082  0.13123  1
 F  F11  1  0.68445  0.91415  0.24407  1
 F  F12  1  0.27332  0.81670  0.50412  1
 O  O1  1  0.21554  0.98955  0.17111  1
 O  O2  1  0.44099  0.27354  0.03181  1
 O  O3  1  0.78446  0.01045  0.82889  1
 O  O4  1  0.55901  0.72646  0.96819  1
 P  P1  1  0.77340  0.80557  0.83161  1
 P  P2  1  0.22660  0.19443  0.16839  1
 Sb  Sb1  1  0.41909  0.76113  0.25046  1
 Sb  Sb2  1  0.58091  0.23887  0.74954  1
