CIF file written using JARVIS-Tools package.
data_TiPd
_symmetry_space_group_name_H-M  'P2_1/m'
_cell_length_a       2.79121
_cell_length_b       4.57754
_cell_length_c       4.89461
_cell_angle_alpha    90
_cell_angle_beta     92.7353
_cell_angle_gamma    90

_symmetry_Int_Tables_number  11
_chemical_formula_structural  TiPd
_chemical_formula_sum  Ti2Pd2
_cell_volume  62.466578600217524
_cell_formula_units_Z  2
loop_
  _symmetry_equiv_pos_site_id
 _symmetry_equiv_pos_as_xyz
 1  'x, y, z'
loop_
 _atom_site_type_symbol
 _atom_site_label
 _atom_site_symmetry_multiplicity
 _atom_site_fract_x
 _atom_site_fract_y
 _atom_site_fract_z
 _atom_site_fract_occupancy
 Pd  Pd1  1  0.00951  0.25000  0.68691  1
 Pd  Pd2  1  0.99049  0.75000  0.31309  1
 Ti  Ti1  1  0.45646  0.25000  0.19912  1
 Ti  Ti2  1  0.54354  0.75000  0.80088  1
