CIF file written using JARVIS-Tools package.
data_YWN3
_symmetry_space_group_name_H-M  'C2/c'
_cell_length_a       6.24862
_cell_length_b       7.25269
_cell_length_c       7.2527
_cell_angle_alpha    98.941
_cell_angle_beta     105.574
_cell_angle_gamma    74.426

_symmetry_Int_Tables_number  15
_chemical_formula_structural  YWN3
_chemical_formula_sum  Y4W4N2
_cell_volume  303.76235613310155
_cell_formula_units_Z  4
loop_
  _symmetry_equiv_pos_site_id
 _symmetry_equiv_pos_as_xyz
 1  'x, y, z'
loop_
 _atom_site_type_symbol
 _atom_site_label
 _atom_site_symmetry_multiplicity
 _atom_site_fract_x
 _atom_site_fract_y
 _atom_site_fract_z
 _atom_site_fract_occupancy
 N  N1  1  0.04741  0.63443  0.35376  1
 N  N2  1  0.14945  0.10326  0.37230  1
 N  N3  1  0.15147  0.77827  -0.00131  1
 N  N4  1  0.84853  0.22173  0.00131  1
 N  N5  1  0.85055  0.89674  0.62770  1
 N  N6  1  0.45259  0.35376  0.63443  1
 N  N7  1  0.64945  0.62770  0.89674  1
 N  N8  1  0.35055  0.37230  0.10326  1
 N  N9  1  0.54741  0.64624  0.36557  1
 N  N10  1  0.34853  -0.00131  0.77827  1
 N  N11  1  0.95259  0.36557  0.64624  1
 N  N12  1  0.65147  0.00131  0.22173  1
 W  W1  1  0.73668  0.38240  0.80141  1
 W  W2  1  0.26332  0.61760  0.19859  1
 W  W3  1  0.76332  0.80141  0.38240  1
 W  W4  1  0.23668  0.19859  0.61760  1
 Y  Y1  1  0.25000  0.08810  0.08810  1
 Y  Y2  1  0.25000  0.70117  0.70117  1
 Y  Y3  1  0.75000  0.91190  0.91190  1
 Y  Y4  1  0.75000  0.29883  0.29883  1
