CIF file written using JARVIS-Tools package.
data_FePH5CO4
_symmetry_space_group_name_H-M  'Pc'
_cell_length_a       4.64907
_cell_length_b       5.48134
_cell_length_c       8.37963
_cell_angle_alpha    89.9913
_cell_angle_beta     90.0059
_cell_angle_gamma    90.725

_symmetry_Int_Tables_number  7
_chemical_formula_structural  FePH5CO4
_chemical_formula_sum  Fe2P2H0C2O8
_cell_volume  213.522361518275
_cell_formula_units_Z  2
loop_
  _symmetry_equiv_pos_site_id
 _symmetry_equiv_pos_as_xyz
 1  'x, y, z'
loop_
 _atom_site_type_symbol
 _atom_site_label
 _atom_site_symmetry_multiplicity
 _atom_site_fract_x
 _atom_site_fract_y
 _atom_site_fract_z
 _atom_site_fract_occupancy
 C  C1  1  0.07172  0.50048  0.59965  1
 C  C2  1  0.57193  0.00009  0.40036  1
 Fe  Fe1  1  0.74948  0.50690  0.01201  1
 Fe  Fe2  1  0.24948  0.00690  0.98800  1
 H  H1  1  0.66109  0.83618  0.45635  1
 H  H2  1  0.10106  0.34163  0.20410  1
 H  H3  1  0.68248  0.12201  0.81605  1
 H  H4  1  0.16195  0.33731  0.54333  1
 H  H5  1  0.83614  0.49580  0.58959  1
 H  H6  1  0.33635  -0.00353  0.41046  1
 H  H7  1  0.65917  0.16270  0.46084  1
 H  H8  1  0.15779  0.66381  0.53948  1
 H  H9  1  0.18252  0.62203  0.18394  1
 H  H10  1  0.60083  0.84166  0.79584  1
 O  O1  1  0.99477  0.01152  0.18142  1
 O  O2  1  0.51838  0.00732  0.79932  1
 O  O3  1  0.52177  0.23083  0.11091  1
 O  O4  1  0.01849  0.50726  0.20066  1
 O  O5  1  0.02172  0.73085  0.88912  1
 O  O6  1  0.01824  0.27802  0.88997  1
 O  O7  1  0.49468  0.51160  0.81858  1
 O  O8  1  0.51829  0.77801  0.11002  1
 P  P1  1  0.16749  0.50536  0.80692  1
 P  P2  1  0.66759  0.00528  0.19308  1
