CIF file written using JARVIS-Tools package.
data_PrY3
_symmetry_space_group_name_H-M  'I4/mmm'
_cell_length_a       6.19225
_cell_length_b       6.19225
_cell_length_c       6.19225
_cell_angle_alpha    131.519
_cell_angle_beta     131.519
_cell_angle_gamma    70.9896

_symmetry_Int_Tables_number  139
_chemical_formula_structural  PrY3
_chemical_formula_sum  PrY3
_cell_volume  130.34213703496567
_cell_formula_units_Z  1
loop_
  _symmetry_equiv_pos_site_id
 _symmetry_equiv_pos_as_xyz
 1  'x, y, z'
loop_
 _atom_site_type_symbol
 _atom_site_label
 _atom_site_symmetry_multiplicity
 _atom_site_fract_x
 _atom_site_fract_y
 _atom_site_fract_z
 _atom_site_fract_occupancy
 Pr  Pr1  1  0.00000  0.00000  0.00000  1
 Y  Y1  1  0.75000  0.25000  0.50000  1
 Y  Y2  1  0.25000  0.75000  0.50000  1
 Y  Y3  1  0.50000  0.50000  0.00000  1
