CIF file written using JARVIS-Tools package.
data_BaAuO2
_symmetry_space_group_name_H-M  'C2/m'
_cell_length_a       3.89485
_cell_length_b       6.32507
_cell_length_c       6.32507
_cell_angle_alpha    108.343
_cell_angle_beta     90.1036
_cell_angle_gamma    90.1035

_symmetry_Int_Tables_number  12
_chemical_formula_structural  BaAuO2
_chemical_formula_sum  Ba2Au2O4
_cell_volume  147.90114285074867
_cell_formula_units_Z  2
loop_
  _symmetry_equiv_pos_site_id
 _symmetry_equiv_pos_as_xyz
 1  'x, y, z'
loop_
 _atom_site_type_symbol
 _atom_site_label
 _atom_site_symmetry_multiplicity
 _atom_site_fract_x
 _atom_site_fract_y
 _atom_site_fract_z
 _atom_site_fract_occupancy
 Au  Au1  1  0.50000  -0.00000  -0.00000  1
 Au  Au2  1  0.50000  0.50000  0.50000  1
 Ba  Ba1  1  0.00000  0.50000  0.00000  1
 Ba  Ba2  1  -0.00000  0.00000  0.50000  1
 O  O1  1  0.72677  0.75279  0.75279  1
 O  O2  1  0.50000  0.30123  0.69877  1
 O  O3  1  0.50000  0.69877  0.30123  1
 O  O4  1  0.27323  0.24721  0.24721  1
