CIF file written using JARVIS-Tools package.
data_YReN3
_symmetry_space_group_name_H-M  'R-3c'
_cell_length_a       5.4558
_cell_length_b       5.4558
_cell_length_c       5.4558
_cell_angle_alpha    61.1937
_cell_angle_beta     61.1936
_cell_angle_gamma    61.1936

_symmetry_Int_Tables_number  167
_chemical_formula_structural  YReN3
_chemical_formula_sum  Y2Re2N6
_cell_volume  117.91480170374479
_cell_formula_units_Z  2
loop_
  _symmetry_equiv_pos_site_id
 _symmetry_equiv_pos_as_xyz
 1  'x, y, z'
loop_
 _atom_site_type_symbol
 _atom_site_label
 _atom_site_symmetry_multiplicity
 _atom_site_fract_x
 _atom_site_fract_y
 _atom_site_fract_z
 _atom_site_fract_occupancy
 N  N1  1  0.17154  0.75000  0.32846  1
 N  N2  1  0.32846  0.17154  0.75000  1
 N  N3  1  0.25000  0.67154  0.82846  1
 N  N4  1  0.67154  0.82846  0.25000  1
 N  N5  1  0.82846  0.25000  0.67154  1
 N  N6  1  0.75000  0.32846  0.17154  1
 Re  Re1  1  0.50000  0.50000  0.50000  1
 Re  Re2  1  0.00000  0.00000  0.00000  1
 Y  Y1  1  0.75000  0.75000  0.75000  1
 Y  Y2  1  0.25000  0.25000  0.25000  1
