CIF file written using JARVIS-Tools package.
data_CeP3H8O7
_symmetry_space_group_name_H-M  'P-1'
_cell_length_a       7.14354
_cell_length_b       7.88676
_cell_length_c       8.77682
_cell_angle_alpha    109.734
_cell_angle_beta     97.8798
_cell_angle_gamma    104.891

_symmetry_Int_Tables_number  2
_chemical_formula_structural  CeP3H8O7
_chemical_formula_sum  Ce2P6H6O4
_cell_volume  435.9745211764059
_cell_formula_units_Z  2
loop_
  _symmetry_equiv_pos_site_id
 _symmetry_equiv_pos_as_xyz
 1  'x, y, z'
loop_
 _atom_site_type_symbol
 _atom_site_label
 _atom_site_symmetry_multiplicity
 _atom_site_fract_x
 _atom_site_fract_y
 _atom_site_fract_z
 _atom_site_fract_occupancy
 Ce  Ce1  1  0.34635  0.18583  0.12865  1
 Ce  Ce2  1  0.65365  0.81417  0.87135  1
 H  H1  1  0.67204  0.49918  0.05062  1
 H  H2  1  0.32796  0.50082  0.94938  1
 H  H3  1  0.86442  0.38472  0.33162  1
 H  H4  1  0.44698  0.14371  0.62704  1
 H  H5  1  0.31499  0.71212  0.03250  1
 H  H6  1  0.13558  0.61528  0.66838  1
 H  H7  1  0.27266  0.33056  0.58568  1
 H  H8  1  0.55302  0.85629  0.37296  1
 H  H9  1  0.72734  0.66944  0.41432  1
 H  H10  1  0.95527  0.08274  0.63211  1
 H  H11  1  0.68501  0.28788  0.96750  1
 H  H12  1  0.95236  0.37801  0.76842  1
 H  H13  1  0.04764  0.62199  0.23158  1
 H  H14  1  0.15189  0.85384  0.58196  1
 H  H15  1  0.84811  0.14616  0.41804  1
 H  H16  1  0.04473  0.91726  0.36789  1
 O  O1  1  0.03512  0.16417  0.21451  1
 O  O2  1  0.96488  0.83583  0.78549  1
 O  O3  1  0.65235  0.06806  0.14460  1
 O  O4  1  0.34765  0.93194  0.85540  1
 O  O5  1  0.21731  0.86649  0.15010  1
 O  O6  1  0.78269  0.13351  0.84990  1
 O  O7  1  0.82763  0.73726  0.09393  1
 O  O8  1  0.17237  0.26274  0.90607  1
 O  O9  1  0.61820  0.47817  0.73658  1
 O  O10  1  0.49513  0.72979  0.58120  1
 O  O11  1  0.62733  0.36883  0.04948  1
 O  O12  1  0.37267  0.63117  0.95052  1
 O  O13  1  0.38180  0.52183  0.26342  1
 O  O14  1  0.50487  0.27021  0.41880  1
 P  P1  1  0.85062  0.18994  0.27414  1
 P  P2  1  0.14938  0.81006  0.72586  1
 P  P3  1  0.03317  0.78706  0.20581  1
 P  P4  1  0.96683  0.21294  0.79419  1
 P  P5  1  0.46601  0.30982  0.59182  1
 P  P6  1  0.53399  0.69018  0.40818  1
