CIF file written using JARVIS-Tools package.
data_SmMo6S8
_symmetry_space_group_name_H-M  'R-3'
_cell_length_a       6.5147
_cell_length_b       6.5147
_cell_length_c       6.5147
_cell_angle_alpha    91.0446
_cell_angle_beta     91.0447
_cell_angle_gamma    88.9554

_symmetry_Int_Tables_number  148
_chemical_formula_structural  SmMo6S8
_chemical_formula_sum  SmMo6S8
_cell_volume  276.3561918531832
_cell_formula_units_Z  1
loop_
  _symmetry_equiv_pos_site_id
 _symmetry_equiv_pos_as_xyz
 1  'x, y, z'
loop_
 _atom_site_type_symbol
 _atom_site_label
 _atom_site_symmetry_multiplicity
 _atom_site_fract_x
 _atom_site_fract_y
 _atom_site_fract_z
 _atom_site_fract_occupancy
 Mo  Mo1  1  0.43820  0.57968  0.22562  1
 Mo  Mo2  1  0.77438  0.43820  0.42032  1
 Mo  Mo3  1  0.42032  0.22562  0.43820  1
 Mo  Mo4  1  0.57968  0.77438  0.56180  1
 Mo  Mo5  1  0.22562  0.56180  0.57968  1
 Mo  Mo6  1  0.56180  0.42032  0.77438  1
 S  S1  1  0.62851  0.24686  0.12596  1
 S  S2  1  0.75913  0.75913  0.24087  1
 S  S3  1  0.12596  0.37149  0.24686  1
 S  S4  1  0.24686  0.87404  0.37149  1
 S  S5  1  0.75314  0.12596  0.62851  1
 S  S6  1  0.87403  0.62851  0.75314  1
 S  S7  1  0.24087  0.24087  0.75913  1
 S  S8  1  0.37149  0.75314  0.87404  1
 Sm  Sm1  1  0.00000  0.00000  0.00000  1
