CIF file written using JARVIS-Tools package.
data_Na2ZnS2
_symmetry_space_group_name_H-M  'P2_1/c'
_cell_length_a       6.85309
_cell_length_b       7.05545
_cell_length_c       8.81494
_cell_angle_alpha    90
_cell_angle_beta     93.7049
_cell_angle_gamma    90

_symmetry_Int_Tables_number  14
_chemical_formula_structural  Na2ZnS2
_chemical_formula_sum  Na8Zn4S8
_cell_volume  425.3263004143668
_cell_formula_units_Z  4
loop_
  _symmetry_equiv_pos_site_id
 _symmetry_equiv_pos_as_xyz
 1  'x, y, z'
loop_
 _atom_site_type_symbol
 _atom_site_label
 _atom_site_symmetry_multiplicity
 _atom_site_fract_x
 _atom_site_fract_y
 _atom_site_fract_z
 _atom_site_fract_occupancy
 Na  Na1  1  0.54661  0.67497  0.67823  1
 Na  Na2  1  0.95339  0.17497  0.32177  1
 Na  Na3  1  0.45339  0.32503  0.32177  1
 Na  Na4  1  0.04661  0.82503  0.67823  1
 Na  Na5  1  0.51222  0.76426  0.05287  1
 Na  Na6  1  0.98778  0.26426  0.94713  1
 Na  Na7  1  0.48778  0.23574  0.94713  1
 Na  Na8  1  0.01222  0.73574  0.05287  1
 S  S1  1  0.25375  0.54445  0.85634  1
 S  S2  1  0.24625  0.04445  0.14366  1
 S  S3  1  0.80262  0.39335  0.59157  1
 S  S4  1  0.69738  0.89335  0.40843  1
 S  S5  1  0.19738  0.60665  0.40843  1
 S  S6  1  0.74625  0.45555  0.14366  1
 S  S7  1  0.75375  0.95555  0.85634  1
 S  S8  1  0.30262  0.10665  0.59157  1
 Zn  Zn1  1  0.84424  0.59654  0.37042  1
 Zn  Zn2  1  0.65576  0.09654  0.62958  1
 Zn  Zn3  1  0.34424  0.90346  0.37042  1
 Zn  Zn4  1  0.15576  0.40346  0.62958  1
