CIF file written using JARVIS-Tools package.
data_CaTlCl3
_symmetry_space_group_name_H-M  'Cmcm'
_cell_length_a       4.06637
_cell_length_b       10.3437
_cell_length_c       6.98669
_cell_angle_alpha    90
_cell_angle_beta     106.917
_cell_angle_gamma    90

_symmetry_Int_Tables_number  63
_chemical_formula_structural  CaTlCl3
_chemical_formula_sum  Ca2Tl2Cl6
_cell_volume  281.15201716738153
_cell_formula_units_Z  2
loop_
  _symmetry_equiv_pos_site_id
 _symmetry_equiv_pos_as_xyz
 1  'x, y, z'
loop_
 _atom_site_type_symbol
 _atom_site_label
 _atom_site_symmetry_multiplicity
 _atom_site_fract_x
 _atom_site_fract_y
 _atom_site_fract_z
 _atom_site_fract_occupancy
 Ca  Ca1  1  0.00000  0.50000  0.00000  1
 Ca  Ca2  1  0.00000  0.00000  0.00000  1
 Cl  Cl1  1  0.63378  0.54661  0.26759  1
 Cl  Cl2  1  0.36622  0.04661  0.73241  1
 Cl  Cl3  1  0.63378  0.95339  0.26759  1
 Cl  Cl4  1  0.36622  0.45339  0.73241  1
 Cl  Cl5  1  0.06165  0.25000  0.12329  1
 Cl  Cl6  1  0.93835  0.75000  0.87671  1
 Tl  Tl1  1  0.74334  0.25000  0.48665  1
 Tl  Tl2  1  0.25666  0.75000  0.51335  1
