CIF file written using JARVIS-Tools package.
data_PbS
_symmetry_space_group_name_H-M  'I4/mmm'
_cell_length_a       4.24538
_cell_length_b       4.24538
_cell_length_c       5.93437
_cell_angle_alpha    90
_cell_angle_beta     90
_cell_angle_gamma    90.0003

_symmetry_Int_Tables_number  139
_chemical_formula_structural  PbS
_chemical_formula_sum  Pb2S2
_cell_volume  106.95630706389049
_cell_formula_units_Z  2
loop_
  _symmetry_equiv_pos_site_id
 _symmetry_equiv_pos_as_xyz
 1  'x, y, z'
loop_
 _atom_site_type_symbol
 _atom_site_label
 _atom_site_symmetry_multiplicity
 _atom_site_fract_x
 _atom_site_fract_y
 _atom_site_fract_z
 _atom_site_fract_occupancy
 Pb  Pb1  1  0.26056  0.76056  0.75006  1
 Pb  Pb2  1  0.76056  0.26056  0.24994  1
 S  S1  1  0.76044  0.26044  0.74996  1
 S  S2  1  0.26044  0.76044  0.25004  1
