CIF file written using JARVIS-Tools package.
data_TiPN3
_symmetry_space_group_name_H-M  'Amm2'
_cell_length_a       2.83997
_cell_length_b       5.03149
_cell_length_c       5.0315
_cell_angle_alpha    115.763
_cell_angle_beta     90
_cell_angle_gamma    90

_symmetry_Int_Tables_number  38
_chemical_formula_structural  TiPN3
_chemical_formula_sum  TiPN3
_cell_volume  64.74985517736775
_cell_formula_units_Z  1
loop_
  _symmetry_equiv_pos_site_id
 _symmetry_equiv_pos_as_xyz
 1  'x, y, z'
loop_
 _atom_site_type_symbol
 _atom_site_label
 _atom_site_symmetry_multiplicity
 _atom_site_fract_x
 _atom_site_fract_y
 _atom_site_fract_z
 _atom_site_fract_occupancy
 N  N1  1  0.50000  0.77290  0.71868  1
 N  N2  1  0.00000  0.81386  0.18614  1
 N  N3  1  0.50000  0.28132  0.22710  1
 P  P1  1  0.50000  0.92550  0.07450  1
 Ti  Ti1  1  0.00000  0.57837  0.42163  1
