CIF file written using JARVIS-Tools package.
data_Ba2PrRuO6
_symmetry_space_group_name_H-M  'C2/m'
_cell_length_a       6.10573
_cell_length_b       6.04499
_cell_length_c       10.5391
_cell_angle_alpha    90
_cell_angle_beta     125.712
_cell_angle_gamma    90

_symmetry_Int_Tables_number  12
_chemical_formula_structural  Ba2PrRuO6
_chemical_formula_sum  Ba4Pr2Ru2O2
_cell_volume  315.84457150873766
_cell_formula_units_Z  2
loop_
  _symmetry_equiv_pos_site_id
 _symmetry_equiv_pos_as_xyz
 1  'x, y, z'
loop_
 _atom_site_type_symbol
 _atom_site_label
 _atom_site_symmetry_multiplicity
 _atom_site_fract_x
 _atom_site_fract_y
 _atom_site_fract_z
 _atom_site_fract_occupancy
 Ba  Ba1  1  0.74926  0.49997  0.25164  1
 Ba  Ba2  1  0.25074  -0.00003  0.24836  1
 Ba  Ba3  1  0.25074  0.50003  0.74836  1
 Ba  Ba4  1  0.74926  0.00003  0.75164  1
 O  O1  1  0.25189  0.22999  0.52507  1
 O  O2  1  0.18014  -0.00003  0.72776  1
 O  O3  1  0.74811  0.77001  0.47493  1
 O  O4  1  0.25189  0.27001  0.02507  1
 O  O5  1  0.74811  0.72999  0.97493  1
 O  O6  1  0.74804  0.27010  0.97493  1
 O  O7  1  0.74804  0.22990  0.47493  1
 O  O8  1  0.81986  0.00003  0.27224  1
 O  O9  1  0.25196  0.77010  0.52507  1
 O  O10  1  0.18014  0.50003  0.22776  1
 O  O11  1  0.25196  0.72990  0.02507  1
 O  O12  1  0.81986  0.49997  0.77224  1
 Pr  Pr1  1  0.50000  0.00000  0.00000  1
 Pr  Pr2  1  0.50000  0.50000  0.50000  1
 Ru  Ru1  1  0.00000  0.00000  0.50000  1
 Ru  Ru2  1  0.00000  0.50000  0.00000  1
