CIF file written using JARVIS-Tools package.
data_Ba4ErRu3O12
_symmetry_space_group_name_H-M  'R-3m'
_cell_length_a       10.3208
_cell_length_b       10.3208
_cell_length_c       10.3208
_cell_angle_alpha    33.1957
_cell_angle_beta     33.1957
_cell_angle_gamma    33.1957

_symmetry_Int_Tables_number  166
_chemical_formula_structural  Ba4ErRu3O12
_chemical_formula_sum  Ba4ErRu3O2
_cell_volume  293.35535307453813
_cell_formula_units_Z  1
loop_
  _symmetry_equiv_pos_site_id
 _symmetry_equiv_pos_as_xyz
 1  'x, y, z'
loop_
 _atom_site_type_symbol
 _atom_site_label
 _atom_site_symmetry_multiplicity
 _atom_site_fract_x
 _atom_site_fract_y
 _atom_site_fract_z
 _atom_site_fract_occupancy
 Ba  Ba1  1  0.28620  0.28620  0.28620  1
 Ba  Ba2  1  0.71380  0.71380  0.71380  1
 Ba  Ba3  1  0.12907  0.12907  0.12907  1
 Ba  Ba4  1  0.87093  0.87093  0.87093  1
 Er  Er1  1  0.00000  0.00000  0.00000  1
 O  O1  1  0.78167  0.30721  0.78167  1
 O  O2  1  0.38700  0.38700  0.85333  1
 O  O3  1  0.30721  0.78167  0.78167  1
 O  O4  1  0.69279  0.21833  0.21833  1
 O  O5  1  0.78167  0.78167  0.30721  1
 O  O6  1  0.21833  0.69279  0.21833  1
 O  O7  1  0.14667  0.61300  0.61300  1
 O  O8  1  0.61300  0.61300  0.14667  1
 O  O9  1  0.21833  0.21833  0.69279  1
 O  O10  1  0.85333  0.38700  0.38700  1
 O  O11  1  0.61300  0.14667  0.61300  1
 O  O12  1  0.38700  0.85333  0.38700  1
 Ru  Ru1  1  0.50000  0.50000  0.50000  1
 Ru  Ru2  1  0.58687  0.58687  0.58687  1
 Ru  Ru3  1  0.41313  0.41313  0.41313  1
