CIF file written using JARVIS-Tools package.
data_Sm3Sb4Au3
_symmetry_space_group_name_H-M  'I-43d'
_cell_length_a       8.6843
_cell_length_b       8.6843
_cell_length_c       8.6843
_cell_angle_alpha    109.471
_cell_angle_beta     109.471
_cell_angle_gamma    109.471

_symmetry_Int_Tables_number  220
_chemical_formula_structural  Sm3Sb4Au3
_chemical_formula_sum  Sm6Sb8Au6
_cell_volume  504.176751557623
_cell_formula_units_Z  2
loop_
  _symmetry_equiv_pos_site_id
 _symmetry_equiv_pos_as_xyz
 1  'x, y, z'
loop_
 _atom_site_type_symbol
 _atom_site_label
 _atom_site_symmetry_multiplicity
 _atom_site_fract_x
 _atom_site_fract_y
 _atom_site_fract_z
 _atom_site_fract_occupancy
 Au  Au1  1  0.37500  0.62500  0.75000  1
 Au  Au2  1  0.12500  0.87500  0.25000  1
 Au  Au3  1  0.87500  0.25000  0.12500  1
 Au  Au4  1  0.75000  0.37500  0.62500  1
 Au  Au5  1  0.25000  0.12500  0.87500  1
 Au  Au6  1  0.62500  0.75000  0.37500  1
 Sb  Sb1  1  0.17779  0.17779  0.17779  1
 Sb  Sb2  1  0.50000  -0.00000  0.32221  1
 Sb  Sb3  1  0.32221  0.50000  -0.00000  1
 Sb  Sb4  1  -0.00000  0.32221  0.50000  1
 Sb  Sb5  1  0.67779  0.67779  0.67779  1
 Sb  Sb6  1  -0.00000  0.82221  0.50000  1
 Sb  Sb7  1  0.82221  0.50000  -0.00000  1
 Sb  Sb8  1  0.50000  -0.00000  0.82221  1
 Sm  Sm1  1  0.87500  0.12500  0.75000  1
 Sm  Sm2  1  0.12500  0.75000  0.87500  1
 Sm  Sm3  1  0.62500  0.37500  0.25000  1
 Sm  Sm4  1  0.37500  0.25000  0.62500  1
 Sm  Sm5  1  0.75000  0.87500  0.12500  1
 Sm  Sm6  1  0.25000  0.62500  0.37500  1
