CIF file written using JARVIS-Tools package.
data_InSnCl3
_symmetry_space_group_name_H-M  'R-3'
_cell_length_a       8.05814
_cell_length_b       8.05814
_cell_length_c       7.218
_cell_angle_alpha    56.0687
_cell_angle_beta     56.0687
_cell_angle_gamma    60

_symmetry_Int_Tables_number  148
_chemical_formula_structural  InSnCl3
_chemical_formula_sum  In2Sn2Cl6
_cell_volume  310.33368247230504
_cell_formula_units_Z  2
loop_
  _symmetry_equiv_pos_site_id
 _symmetry_equiv_pos_as_xyz
 1  'x, y, z'
loop_
 _atom_site_type_symbol
 _atom_site_label
 _atom_site_symmetry_multiplicity
 _atom_site_fract_x
 _atom_site_fract_y
 _atom_site_fract_z
 _atom_site_fract_occupancy
 Cl  Cl1  1  0.50359  0.73435  0.74418  1
 Cl  Cl2  1  0.01787  0.50359  0.74418  1
 Cl  Cl3  1  0.73435  0.01788  0.74418  1
 Cl  Cl4  1  0.49641  0.26565  0.25582  1
 Cl  Cl5  1  0.26565  0.98212  0.25582  1
 Cl  Cl6  1  0.98212  0.49641  0.25582  1
 In  In1  1  0.89282  0.89282  0.32155  1
 In  In2  1  0.10718  0.10718  0.67845  1
 Sn  Sn1  1  0.64996  0.64996  0.05012  1
 Sn  Sn2  1  0.35004  0.35004  0.94988  1
