CIF file written using JARVIS-Tools package.
data_KAgBr3
_symmetry_space_group_name_H-M  'Pm-3m'
_cell_length_a       5.34384
_cell_length_b       5.34393
_cell_length_c       5.34412
_cell_angle_alpha    89.9906
_cell_angle_beta     90.0034
_cell_angle_gamma    89.9968

_symmetry_Int_Tables_number  221
_chemical_formula_structural  KAgBr3
_chemical_formula_sum  KAgBr3
_cell_volume  152.61269548333962
_cell_formula_units_Z  1
loop_
  _symmetry_equiv_pos_site_id
 _symmetry_equiv_pos_as_xyz
 1  'x, y, z'
loop_
 _atom_site_type_symbol
 _atom_site_label
 _atom_site_symmetry_multiplicity
 _atom_site_fract_x
 _atom_site_fract_y
 _atom_site_fract_z
 _atom_site_fract_occupancy
 Ag  Ag1  1  0.49999  0.51205  0.50200  1
 Br  Br1  1  -0.00001  0.51207  0.50211  1
 Br  Br2  1  0.49996  0.01205  0.50190  1
 Br  Br3  1  0.50003  0.51203  0.00200  1
 K  K1  1  0.00002  0.01181  0.00199  1
