CIF file written using JARVIS-Tools package.
data_YbBrO
_symmetry_space_group_name_H-M  'P4/nmm'
_cell_length_a       3.70473
_cell_length_b       3.70473
_cell_length_c       8.29456
_cell_angle_alpha    89.9999
_cell_angle_beta     90
_cell_angle_gamma    89.9833

_symmetry_Int_Tables_number  129
_chemical_formula_structural  YbBrO
_chemical_formula_sum  Yb2Br2O2
_cell_volume  113.84306876246153
_cell_formula_units_Z  2
loop_
  _symmetry_equiv_pos_site_id
 _symmetry_equiv_pos_as_xyz
 1  'x, y, z'
loop_
 _atom_site_type_symbol
 _atom_site_label
 _atom_site_symmetry_multiplicity
 _atom_site_fract_x
 _atom_site_fract_y
 _atom_site_fract_z
 _atom_site_fract_occupancy
 Br  Br1  1  0.50000  -0.00000  0.34504  1
 Br  Br2  1  -0.00000  0.50000  0.65495  1
 O  O1  1  1.00000  -0.00000  0.00000  1
 O  O2  1  0.50000  0.50000  0.00000  1
 Yb  Yb1  1  0.50000  0.00000  0.84225  1
 Yb  Yb2  1  0.00000  0.50000  0.15775  1
