CIF file written using JARVIS-Tools package.
data_Mn2CoO6
_symmetry_space_group_name_H-M  'C2/m'
_cell_length_a       6.24125
_cell_length_b       2.79014
_cell_length_c       5.46304
_cell_angle_alpha    90.033
_cell_angle_beta     103.612
_cell_angle_gamma    77.0542

_symmetry_Int_Tables_number  12
_chemical_formula_structural  Mn2CoO6
_chemical_formula_sum  Mn2CoO6
_cell_volume  89.97437915340586
_cell_formula_units_Z  1
loop_
  _symmetry_equiv_pos_site_id
 _symmetry_equiv_pos_as_xyz
 1  'x, y, z'
loop_
 _atom_site_type_symbol
 _atom_site_label
 _atom_site_symmetry_multiplicity
 _atom_site_fract_x
 _atom_site_fract_y
 _atom_site_fract_z
 _atom_site_fract_occupancy
 Co  Co1  1  0.33374  0.33240  0.33228  1
 Mn  Mn1  1  -0.01684  0.00768  -0.02889  1
 Mn  Mn2  1  0.68431  0.65713  0.69345  1
 O  O1  1  0.01888  0.49007  0.21446  1
 O  O2  1  0.36374  0.81764  0.56556  1
 O  O3  1  0.66893  0.16510  0.92281  1
 O  O4  1  0.30374  0.84717  0.09901  1
 O  O5  1  0.64859  0.17474  0.45010  1
 O  O6  1  -0.00146  0.49970  0.74175  1
