CIF file written using JARVIS-Tools package.
data_YWN3
_symmetry_space_group_name_H-M  'Cmcm'
_cell_length_a       3.46096
_cell_length_b       6.04868
_cell_length_c       6.8188
_cell_angle_alpha    90
_cell_angle_beta     75.2987
_cell_angle_gamma    90

_symmetry_Int_Tables_number  63
_chemical_formula_structural  YWN3
_chemical_formula_sum  Y2W2N6
_cell_volume  138.07287246983185
_cell_formula_units_Z  2
loop_
  _symmetry_equiv_pos_site_id
 _symmetry_equiv_pos_as_xyz
 1  'x, y, z'
loop_
 _atom_site_type_symbol
 _atom_site_label
 _atom_site_symmetry_multiplicity
 _atom_site_fract_x
 _atom_site_fract_y
 _atom_site_fract_z
 _atom_site_fract_occupancy
 N  N1  1  0.84013  0.98259  0.31975  1
 N  N2  1  0.15987  0.48259  0.68025  1
 N  N3  1  0.49816  0.75000  0.00368  1
 N  N4  1  0.15987  0.01741  0.68025  1
 N  N5  1  0.84013  0.51741  0.31975  1
 N  N6  1  0.50184  0.25000  0.99632  1
 W  W1  1  0.93013  0.75000  0.13975  1
 W  W2  1  0.06987  0.25000  0.86025  1
 Y  Y1  1  0.31461  0.25000  0.37077  1
 Y  Y2  1  0.68539  0.75000  0.62923  1
