CIF file written using JARVIS-Tools package.
data_InGeCl3
_symmetry_space_group_name_H-M  'R3c'
_cell_length_a       7.18054
_cell_length_b       7.18053
_cell_length_c       7.18054
_cell_angle_alpha    65.1404
_cell_angle_beta     65.1404
_cell_angle_gamma    65.1403

_symmetry_Int_Tables_number  161
_chemical_formula_structural  InGeCl3
_chemical_formula_sum  In2Ge2Cl6
_cell_volume  291.1412371180105
_cell_formula_units_Z  2
loop_
  _symmetry_equiv_pos_site_id
 _symmetry_equiv_pos_as_xyz
 1  'x, y, z'
loop_
 _atom_site_type_symbol
 _atom_site_label
 _atom_site_symmetry_multiplicity
 _atom_site_fract_x
 _atom_site_fract_y
 _atom_site_fract_z
 _atom_site_fract_occupancy
 Cl  Cl1  1  0.20661  0.86406  0.69116  1
 Cl  Cl2  1  0.86406  0.69116  0.20661  1
 Cl  Cl3  1  0.69116  0.20661  0.86406  1
 Cl  Cl4  1  0.19116  0.36406  0.70661  1
 Cl  Cl5  1  0.70661  0.19116  0.36406  1
 Cl  Cl6  1  0.36406  0.70661  0.19116  1
 Ge  Ge1  1  0.00201  0.00201  0.00201  1
 Ge  Ge2  1  0.50201  0.50201  0.50201  1
 In  In1  1  0.26467  0.26467  0.26467  1
 In  In2  1  0.76467  0.76467  0.76466  1
