CIF file written using JARVIS-Tools package.
data_PrB2Ru2
_symmetry_space_group_name_H-M  'Fddd'
_cell_length_a       5.64169
_cell_length_b       5.64169
_cell_length_c       5.99615
_cell_angle_alpha    108.264
_cell_angle_beta     108.264
_cell_angle_gamma    109.5

_symmetry_Int_Tables_number  70
_chemical_formula_structural  PrB2Ru2
_chemical_formula_sum  Pr2B4Ru4
_cell_volume  151.0670983025876
_cell_formula_units_Z  2
loop_
  _symmetry_equiv_pos_site_id
 _symmetry_equiv_pos_as_xyz
 1  'x, y, z'
loop_
 _atom_site_type_symbol
 _atom_site_label
 _atom_site_symmetry_multiplicity
 _atom_site_fract_x
 _atom_site_fract_y
 _atom_site_fract_z
 _atom_site_fract_occupancy
 B  B1  1  0.68081  0.31919  0.00000  1
 B  B2  1  0.31919  0.68081  0.00000  1
 B  B3  1  0.93082  0.06918  0.50000  1
 B  B4  1  0.56918  0.43082  0.50000  1
 Pr  Pr1  1  0.00000  0.00000  0.00000  1
 Pr  Pr2  1  0.25000  0.75000  0.50000  1
 Ru  Ru1  1  0.61347  0.11347  0.22693  1
 Ru  Ru2  1  0.63654  0.63654  0.27308  1
 Ru  Ru3  1  0.36346  0.36346  0.72692  1
 Ru  Ru4  1  0.88653  0.38654  0.77307  1
