CIF file written using JARVIS-Tools package.
data_TiReN3
_symmetry_space_group_name_H-M  'R3c'
_cell_length_a       5.1077
_cell_length_b       5.1077
_cell_length_c       5.5742
_cell_angle_alpha    62.7318
_cell_angle_beta     62.7319
_cell_angle_gamma    60

_symmetry_Int_Tables_number  161
_chemical_formula_structural  TiReN3
_chemical_formula_sum  Ti2Re2N6
_cell_volume  106.87302033642197
_cell_formula_units_Z  2
loop_
  _symmetry_equiv_pos_site_id
 _symmetry_equiv_pos_as_xyz
 1  'x, y, z'
loop_
 _atom_site_type_symbol
 _atom_site_label
 _atom_site_symmetry_multiplicity
 _atom_site_fract_x
 _atom_site_fract_y
 _atom_site_fract_z
 _atom_site_fract_occupancy
 N  N1  1  0.41089  0.07112  0.81060  1
 N  N2  1  0.70739  0.41089  0.81060  1
 N  N3  1  0.91089  0.20739  0.31060  1
 N  N4  1  0.57112  0.91089  0.31060  1
 N  N5  1  0.07112  0.70739  0.81060  1
 N  N6  1  0.20739  0.57112  0.31060  1
 Re  Re1  1  0.29794  0.29794  0.10617  1
 Re  Re2  1  0.79794  0.79794  0.60617  1
 Ti  Ti1  1  0.99436  0.99436  0.01691  1
 Ti  Ti2  1  0.49436  0.49436  0.51691  1
