CIF file written using JARVIS-Tools package.
data_TbH3
_symmetry_space_group_name_H-M  'P-3c1'
_cell_length_a       6.38154
_cell_length_b       6.38154
_cell_length_c       6.64849
_cell_angle_alpha    90
_cell_angle_beta     90
_cell_angle_gamma    120

_symmetry_Int_Tables_number  165
_chemical_formula_structural  TbH3
_chemical_formula_sum  Tb6H8
_cell_volume  234.47880289962555
_cell_formula_units_Z  6
loop_
  _symmetry_equiv_pos_site_id
 _symmetry_equiv_pos_as_xyz
 1  'x, y, z'
loop_
 _atom_site_type_symbol
 _atom_site_label
 _atom_site_symmetry_multiplicity
 _atom_site_fract_x
 _atom_site_fract_y
 _atom_site_fract_z
 _atom_site_fract_occupancy
 H  H1  1  0.35287  0.03234  0.40931  1
 H  H2  1  0.67947  0.03234  0.90931  1
 H  H3  1  0.35287  0.32053  0.90931  1
 H  H4  1  0.96766  0.64713  0.90931  1
 H  H5  1  0.33333  0.66667  0.81521  1
 H  H6  1  0.00000  0.00000  0.75000  1
 H  H7  1  0.64713  0.67947  0.09069  1
 H  H8  1  0.03234  0.67947  0.59069  1
 H  H9  1  0.66667  0.33333  0.68479  1
 H  H10  1  0.32053  0.35287  0.59069  1
 H  H11  1  0.67947  0.64713  0.40931  1
 H  H12  1  0.32053  0.96766  0.09069  1
 H  H13  1  0.96766  0.32053  0.40931  1
 H  H14  1  0.33333  0.66667  0.31521  1
 H  H15  1  0.00000  0.00000  0.25000  1
 H  H16  1  0.66667  0.33333  0.18479  1
 H  H17  1  0.03234  0.35287  0.09069  1
 H  H18  1  0.64713  0.96766  0.59069  1
 Tb  Tb1  1  0.33755  0.33755  0.25000  1
 Tb  Tb2  1  -0.00000  0.66245  0.25000  1
 Tb  Tb3  1  0.66245  -0.00000  0.25000  1
 Tb  Tb4  1  0.66245  0.66245  0.75000  1
 Tb  Tb5  1  0.33755  0.00000  0.75000  1
 Tb  Tb6  1  0.00000  0.33755  0.75000  1
