CIF file written using JARVIS-Tools package.
data_SmMg16Al12
_symmetry_space_group_name_H-M  'I-43m'
_cell_length_a       9.15768
_cell_length_b       9.15767
_cell_length_c       9.15768
_cell_angle_alpha    109.471
_cell_angle_beta     109.471
_cell_angle_gamma    109.471

_symmetry_Int_Tables_number  217
_chemical_formula_structural  SmMg16Al12
_chemical_formula_sum  SmMg6Al2
_cell_volume  591.1978176813752
_cell_formula_units_Z  1
loop_
  _symmetry_equiv_pos_site_id
 _symmetry_equiv_pos_as_xyz
 1  'x, y, z'
loop_
 _atom_site_type_symbol
 _atom_site_label
 _atom_site_symmetry_multiplicity
 _atom_site_fract_x
 _atom_site_fract_y
 _atom_site_fract_z
 _atom_site_fract_occupancy
 Al  Al1  1  0.18793  0.18793  0.81784  1
 Al  Al2  1  0.62991  0.00000  0.81207  1
 Al  Al3  1  0.81207  0.62991  0.00000  1
 Al  Al4  1  0.37010  0.37009  0.18216  1
 Al  Al5  1  0.81784  0.18793  0.18793  1
 Al  Al6  1  0.62991  0.81207  0.00000  1
 Al  Al7  1  0.18216  0.37009  0.37010  1
 Al  Al8  1  0.37010  0.18216  0.37010  1
 Al  Al9  1  0.81207  0.00000  0.62991  1
 Al  Al10  1  0.00000  0.81207  0.62991  1
 Al  Al11  1  0.00000  0.62991  0.81207  1
 Al  Al12  1  0.18793  0.81784  0.18793  1
 Mg  Mg1  1  -0.00000  0.00000  0.35874  1
 Mg  Mg2  1  0.35874  0.00000  -0.00000  1
 Mg  Mg3  1  0.00000  0.35874  0.00000  1
 Mg  Mg4  1  0.60373  0.31959  0.00000  1
 Mg  Mg5  1  0.68042  0.68041  0.28414  1
 Mg  Mg6  1  0.60373  -0.00000  0.31959  1
 Mg  Mg7  1  -0.00000  0.60373  0.31959  1
 Mg  Mg8  1  0.68041  0.28414  0.68041  1
 Mg  Mg9  1  0.39627  0.71586  0.39627  1
 Mg  Mg10  1  0.71586  0.39627  0.39627  1
 Mg  Mg11  1  0.31959  -0.00000  0.60373  1
 Mg  Mg12  1  0.00000  0.31959  0.60373  1
 Mg  Mg13  1  0.64126  0.64126  0.64126  1
 Mg  Mg14  1  0.28414  0.68041  0.68042  1
 Mg  Mg15  1  0.39627  0.39627  0.71586  1
 Mg  Mg16  1  0.31959  0.60373  -0.00000  1
 Sm  Sm1  1  0.00000  0.00000  0.00000  1
