CIF file written using JARVIS-Tools package.
data_NaGaGe2O6
_symmetry_space_group_name_H-M  'C2/c'
_cell_length_a       5.48825
_cell_length_b       6.68265
_cell_length_c       6.68265
_cell_angle_alpha    83.0293
_cell_angle_beta     77.9636
_cell_angle_gamma    77.9636

_symmetry_Int_Tables_number  15
_chemical_formula_structural  NaGaGe2O6
_chemical_formula_sum  Na2Ga2Ge4O2
_cell_volume  233.65652722503097
_cell_formula_units_Z  2
loop_
  _symmetry_equiv_pos_site_id
 _symmetry_equiv_pos_as_xyz
 1  'x, y, z'
loop_
 _atom_site_type_symbol
 _atom_site_label
 _atom_site_symmetry_multiplicity
 _atom_site_fract_x
 _atom_site_fract_y
 _atom_site_fract_z
 _atom_site_fract_occupancy
 Ga  Ga1  1  0.75000  0.09397  0.90603  1
 Ga  Ga2  1  0.25000  0.90603  0.09397  1
 Ge  Ge1  1  0.72580  0.61472  0.80878  1
 Ge  Ge2  1  0.77420  0.19122  0.38528  1
 Ge  Ge3  1  0.27420  0.38528  0.19122  1
 Ge  Ge4  1  0.22580  0.80878  0.61472  1
 Na  Na1  1  0.75000  0.69183  0.30817  1
 Na  Na2  1  0.25000  0.30817  0.69183  1
 O  O1  1  0.82334  0.36593  0.91477  1
 O  O2  1  0.51007  0.38818  0.33762  1
 O  O3  1  0.17666  0.63407  0.08523  1
 O  O4  1  0.32334  0.91477  0.36593  1
 O  O5  1  0.67666  0.08523  0.63407  1
 O  O6  1  0.48993  0.61182  0.66238  1
 O  O7  1  0.37437  0.18559  0.02075  1
 O  O8  1  0.12563  0.97925  0.81441  1
 O  O9  1  0.62563  0.81441  0.97925  1
 O  O10  1  0.01007  0.33762  0.38818  1
 O  O11  1  0.87437  0.02075  0.18559  1
 O  O12  1  -0.01007  0.66238  0.61182  1
