CIF file written using JARVIS-Tools package.
data_CoAs4F18
_symmetry_space_group_name_H-M  'P2_1/c'
_cell_length_a       7.20967
_cell_length_b       7.24075
_cell_length_c       12.3687
_cell_angle_alpha    90
_cell_angle_beta     90
_cell_angle_gamma    93.1807

_symmetry_Int_Tables_number  14
_chemical_formula_structural  CoAs4F18
_chemical_formula_sum  Co2As8F36
_cell_volume  644.6951065607624
_cell_formula_units_Z  2
loop_
  _symmetry_equiv_pos_site_id
 _symmetry_equiv_pos_as_xyz
 1  'x, y, z'
loop_
 _atom_site_type_symbol
 _atom_site_label
 _atom_site_symmetry_multiplicity
 _atom_site_fract_x
 _atom_site_fract_y
 _atom_site_fract_z
 _atom_site_fract_occupancy
 As  As1  1  0.50000  -0.00000  0.50000  1
 As  As2  1  0.50000  -0.00000  0.00000  1
 As  As3  1  0.00000  0.50000  0.50000  1
 As  As4  1  0.47585  0.56008  0.20951  1
 As  As5  1  0.00000  0.50000  0.00000  1
 As  As6  1  0.02415  0.93992  0.70951  1
 As  As7  1  0.97585  0.06008  0.29049  1
 As  As8  1  0.52415  0.43992  0.79049  1
 Co  Co1  1  0.50000  0.50000  0.50000  1
 Co  Co2  1  0.00000  0.00000  0.00000  1
 F  F1  1  0.73774  0.06421  0.95847  1
 F  F2  1  0.57428  0.55020  0.65596  1
 F  F3  1  0.19494  0.14712  0.24721  1
 F  F4  1  0.26226  0.93579  0.04153  1
 F  F5  1  0.43423  0.23193  0.53814  1
 F  F6  1  0.30506  0.35288  0.74721  1
 F  F7  1  0.43120  0.21832  0.95496  1
 F  F8  1  0.93120  0.71832  0.54504  1
 F  F9  1  0.27136  0.94723  0.45577  1
 F  F10  1  0.77136  0.44723  0.04423  1
 F  F11  1  0.56437  0.07753  0.37065  1
 F  F12  1  0.86236  0.25794  0.25313  1
 F  F13  1  0.54577  0.09392  0.12757  1
 F  F14  1  0.45423  0.90608  0.87243  1
 F  F15  1  0.92572  0.94980  0.15596  1
 F  F16  1  0.95423  0.40608  0.62757  1
 F  F17  1  0.06437  0.57753  0.12935  1
 F  F18  1  0.56577  0.76807  0.46186  1
 F  F19  1  0.43563  0.92247  0.62935  1
 F  F20  1  0.36236  0.75794  0.24687  1
 F  F21  1  0.42572  0.44980  0.34404  1
 F  F22  1  0.72864  0.05277  0.54423  1
 F  F23  1  0.56880  0.78168  0.04504  1
 F  F24  1  0.76226  0.43579  0.45847  1
 F  F25  1  0.22864  0.55277  0.95577  1
 F  F26  1  0.69494  0.64712  0.25279  1
 F  F27  1  0.93423  0.73193  0.96186  1
 F  F28  1  0.63764  0.24206  0.75313  1
 F  F29  1  0.07428  0.05020  0.84404  1
 F  F30  1  0.06880  0.28168  0.45496  1
 F  F31  1  0.06577  0.26807  0.03814  1
 F  F32  1  0.93563  0.42247  0.87065  1
 F  F33  1  0.13764  0.74206  0.74687  1
 F  F34  1  0.04577  0.59392  0.37243  1
 F  F35  1  0.23774  0.56421  0.54153  1
 F  F36  1  0.80506  0.85288  0.75279  1
