CIF file written using JARVIS-Tools package.
data_SiH8
_symmetry_space_group_name_H-M  'I-4m2'
_cell_length_a       5.33842
_cell_length_b       5.33842
_cell_length_c       5.33842
_cell_angle_alpha    119.219
_cell_angle_beta     119.219
_cell_angle_gamma    91.3583

_symmetry_Int_Tables_number  119
_chemical_formula_structural  SiH8
_chemical_formula_sum  SiH8
_cell_volume  108.81439495427908
_cell_formula_units_Z  1
loop_
  _symmetry_equiv_pos_site_id
 _symmetry_equiv_pos_as_xyz
 1  'x, y, z'
loop_
 _atom_site_type_symbol
 _atom_site_label
 _atom_site_symmetry_multiplicity
 _atom_site_fract_x
 _atom_site_fract_y
 _atom_site_fract_z
 _atom_site_fract_occupancy
 H  H1  1  0.44959  0.44959  -0.00000  1
 H  H2  1  0.55041  0.55041  0.00000  1
 H  H3  1  0.69957  0.19956  0.50000  1
 H  H4  1  0.80044  0.30044  0.50000  1
 H  H5  1  0.11565  0.34200  0.22634  1
 H  H6  1  0.11565  0.88931  0.77366  1
 H  H7  1  0.65800  0.88435  0.77366  1
 H  H8  1  0.11069  0.88435  0.22634  1
 Si  Si1  1  0.00000  0.00000  0.00000  1
