CIF file written using JARVIS-Tools package.
data_Tl3F
_symmetry_space_group_name_H-M  'I4/mmm'
_cell_length_a       6.19099
_cell_length_b       6.19099
_cell_length_c       6.19099
_cell_angle_alpha    138.285
_cell_angle_beta     138.285
_cell_angle_gamma    60.4668

_symmetry_Int_Tables_number  139
_chemical_formula_structural  Tl3F
_chemical_formula_sum  Tl3F
_cell_volume  103.95677058344394
_cell_formula_units_Z  1
loop_
  _symmetry_equiv_pos_site_id
 _symmetry_equiv_pos_as_xyz
 1  'x, y, z'
loop_
 _atom_site_type_symbol
 _atom_site_label
 _atom_site_symmetry_multiplicity
 _atom_site_fract_x
 _atom_site_fract_y
 _atom_site_fract_z
 _atom_site_fract_occupancy
 F  F1  1  0.00000  0.00000  0.00000  1
 Tl  Tl1  1  0.75000  0.25000  0.50000  1
 Tl  Tl2  1  0.25000  0.75000  0.50000  1
 Tl  Tl3  1  0.50000  0.50000  0.00000  1
