CIF file written using JARVIS-Tools package.
data_H10C3NClO4
_symmetry_space_group_name_H-M  'P2_1/m'
_cell_length_a       5.41921
_cell_length_b       7.59332
_cell_length_c       8.58503
_cell_angle_alpha    90
_cell_angle_beta     90
_cell_angle_gamma    103.828

_symmetry_Int_Tables_number  11
_chemical_formula_structural  H10C3NClO4
_chemical_formula_sum  H20C6N2Cl2O8
_cell_volume  343.0334489680504
_cell_formula_units_Z  2
loop_
  _symmetry_equiv_pos_site_id
 _symmetry_equiv_pos_as_xyz
 1  'x, y, z'
loop_
 _atom_site_type_symbol
 _atom_site_label
 _atom_site_symmetry_multiplicity
 _atom_site_fract_x
 _atom_site_fract_y
 _atom_site_fract_z
 _atom_site_fract_occupancy
 C  C1  1  0.07054  0.73741  0.10693  1
 C  C2  1  0.17801  0.08172  0.75094  1
 C  C3  1  0.92946  0.26259  0.60693  1
 C  C4  1  0.92956  0.26261  0.89500  1
 C  C5  1  0.82199  0.91828  0.25094  1
 C  C6  1  0.07044  0.73739  0.39500  1
 Cl  Cl1  1  0.52384  0.29625  0.25092  1
 Cl  Cl2  1  0.47616  0.70375  0.75092  1
 H  H1  1  0.94702  0.73365  0.49658  1
 H  H2  1  0.94720  0.73371  0.00531  1
 H  H3  1  0.01591  0.96363  0.75094  1
 H  H4  1  0.98409  0.03637  0.25094  1
 H  H5  1  0.76148  0.64056  0.25093  1
 H  H6  1  0.70673  0.91840  0.35581  1
 H  H7  1  0.22997  0.85736  0.40031  1
 H  H8  1  0.23852  0.35944  0.75093  1
 H  H9  1  0.14108  0.61392  0.11342  1
 H  H10  1  0.85892  0.38608  0.61342  1
 H  H11  1  0.14100  0.61390  0.38852  1
 H  H12  1  0.29327  0.08160  0.64608  1
 H  H13  1  0.70673  0.91840  0.14608  1
 H  H14  1  0.23009  0.85738  0.10168  1
 H  H15  1  0.76991  0.14262  0.60168  1
 H  H16  1  0.05298  0.26635  0.99658  1
 H  H17  1  0.77003  0.14264  0.90031  1
 H  H18  1  0.29327  0.08160  0.85581  1
 H  H19  1  0.85900  0.38610  0.88852  1
 H  H20  1  0.05280  0.26629  0.50531  1
 N  N1  1  0.07987  0.24991  0.75095  1
 N  N2  1  0.92013  0.75009  0.25095  1
 O  O1  1  0.58004  0.80551  0.88929  1
 O  O2  1  0.58002  0.80550  0.61254  1
 O  O3  1  0.20019  0.66995  0.75093  1
 O  O4  1  0.41998  0.19450  0.11254  1
 O  O5  1  0.41996  0.19449  0.38929  1
 O  O6  1  0.79981  0.33005  0.25093  1
 O  O7  1  0.54580  0.52775  0.75092  1
 O  O8  1  0.45420  0.47225  0.25092  1
