CIF file written using JARVIS-Tools package.
data_Sr3Tm
_symmetry_space_group_name_H-M  'P6_3/mmc'
_cell_length_a       7.96594
_cell_length_b       7.96594
_cell_length_c       6.46458
_cell_angle_alpha    90
_cell_angle_beta     90
_cell_angle_gamma    120

_symmetry_Int_Tables_number  194
_chemical_formula_structural  Sr3Tm
_chemical_formula_sum  Sr6Tm2
_cell_volume  355.2594948126476
_cell_formula_units_Z  2
loop_
  _symmetry_equiv_pos_site_id
 _symmetry_equiv_pos_as_xyz
 1  'x, y, z'
loop_
 _atom_site_type_symbol
 _atom_site_label
 _atom_site_symmetry_multiplicity
 _atom_site_fract_x
 _atom_site_fract_y
 _atom_site_fract_z
 _atom_site_fract_occupancy
 Sr  Sr1  1  0.17159  0.82841  0.75000  1
 Sr  Sr2  1  0.65681  0.82841  0.75000  1
 Sr  Sr3  1  0.17159  0.34319  0.75000  1
 Sr  Sr4  1  0.82841  0.17159  0.25000  1
 Sr  Sr5  1  0.34319  0.17159  0.25000  1
 Sr  Sr6  1  0.82841  0.65681  0.25000  1
 Tm  Tm1  1  0.33333  0.66667  0.25000  1
 Tm  Tm2  1  0.66667  0.33333  0.75000  1
