CIF file written using JARVIS-Tools package.
data_Li6PS5I
_symmetry_space_group_name_H-M  'F-43m'
_cell_length_a       7.23394
_cell_length_b       7.23394
_cell_length_c       7.23394
_cell_angle_alpha    60
_cell_angle_beta     60
_cell_angle_gamma    60

_symmetry_Int_Tables_number  216
_chemical_formula_structural  Li6PS5I
_chemical_formula_sum  Li6PS5I
_cell_volume  267.67673688208845
_cell_formula_units_Z  1
loop_
  _symmetry_equiv_pos_site_id
 _symmetry_equiv_pos_as_xyz
 1  'x, y, z'
loop_
 _atom_site_type_symbol
 _atom_site_label
 _atom_site_symmetry_multiplicity
 _atom_site_fract_x
 _atom_site_fract_y
 _atom_site_fract_z
 _atom_site_fract_occupancy
 I  I1  1  0.00000  0.00000  0.00000  1
 Li  Li1  1  0.02353  0.47647  0.02353  1
 Li  Li2  1  0.47647  0.02353  0.47647  1
 Li  Li3  1  0.02353  0.47647  0.47647  1
 Li  Li4  1  0.47647  0.02353  0.02353  1
 Li  Li5  1  0.02353  0.02353  0.47647  1
 Li  Li6  1  0.47647  0.47647  0.02353  1
 P  P1  1  0.50000  0.50000  0.50000  1
 S  S1  1  0.61633  0.61633  0.15101  1
 S  S2  1  0.61633  0.15101  0.61633  1
 S  S3  1  0.15101  0.61633  0.61633  1
 S  S4  1  0.61633  0.61633  0.61633  1
 S  S5  1  0.25000  0.25000  0.25000  1
