CIF file written using JARVIS-Tools package.
data_Li2VF6
_symmetry_space_group_name_H-M  'Cmc2_1'
_cell_length_a       5.28773
_cell_length_b       5.28773
_cell_length_c       8.31297
_cell_angle_alpha    90.0015
_cell_angle_beta     89.9985
_cell_angle_gamma    61.8401

_symmetry_Int_Tables_number  36
_chemical_formula_structural  Li2VF6
_chemical_formula_sum  Li4V2F2
_cell_volume  204.9200895385881
_cell_formula_units_Z  2
loop_
  _symmetry_equiv_pos_site_id
 _symmetry_equiv_pos_as_xyz
 1  'x, y, z'
loop_
 _atom_site_type_symbol
 _atom_site_label
 _atom_site_symmetry_multiplicity
 _atom_site_fract_x
 _atom_site_fract_y
 _atom_site_fract_z
 _atom_site_fract_occupancy
 F  F1  1  0.64669  0.12509  0.91421  1
 F  F2  1  0.17683  0.17684  0.79120  1
 F  F3  1  0.13459  0.59724  0.59729  1
 F  F4  1  0.86532  0.40281  0.09725  1
 F  F5  1  0.59719  0.13468  0.59725  1
 F  F6  1  0.12511  0.64668  0.91425  1
 F  F7  1  0.58128  0.58131  0.76456  1
 F  F8  1  0.41869  0.41872  0.26456  1
 F  F9  1  0.82316  0.82317  0.29120  1
 F  F10  1  0.40276  0.86541  0.09729  1
 F  F11  1  0.87491  0.35331  0.41421  1
 F  F12  1  0.35332  0.87489  0.41425  1
 Li  Li1  1  0.95506  0.95507  0.47741  1
 Li  Li2  1  0.72622  0.72623  0.92914  1
 Li  Li3  1  0.27377  0.27378  0.42914  1
 Li  Li4  1  0.04493  0.04494  0.97741  1
 V  V1  1  0.62059  0.62062  0.26469  1
 V  V2  1  0.37938  0.37941  0.76469  1
