CIF file written using JARVIS-Tools package.
data_AlFe
_symmetry_space_group_name_H-M  'P6/mmm'
_cell_length_a       2.64384
_cell_length_b       2.64384
_cell_length_c       4.92077
_cell_angle_alpha    90
_cell_angle_beta     90
_cell_angle_gamma    120

_symmetry_Int_Tables_number  191
_chemical_formula_structural  AlFe
_chemical_formula_sum  AlFe
_cell_volume  29.78755550240391
_cell_formula_units_Z  1
loop_
  _symmetry_equiv_pos_site_id
 _symmetry_equiv_pos_as_xyz
 1  'x, y, z'
loop_
 _atom_site_type_symbol
 _atom_site_label
 _atom_site_symmetry_multiplicity
 _atom_site_fract_x
 _atom_site_fract_y
 _atom_site_fract_z
 _atom_site_fract_occupancy
 Al  Al1  1  0.00000  0.00000  0.50000  1
 Fe  Fe1  1  0.00000  0.00000  0.00000  1
