CIF file written using JARVIS-Tools package.
data_ThCoC2
_symmetry_space_group_name_H-M  'Amm2'
_cell_length_a       3.82673
_cell_length_b       3.81588
_cell_length_c       3.81588
_cell_angle_alpha    106.964
_cell_angle_beta     90
_cell_angle_gamma    90

_symmetry_Int_Tables_number  38
_chemical_formula_structural  ThCoC2
_chemical_formula_sum  ThCoC2
_cell_volume  53.29616826518715
_cell_formula_units_Z  1
loop_
  _symmetry_equiv_pos_site_id
 _symmetry_equiv_pos_as_xyz
 1  'x, y, z'
loop_
 _atom_site_type_symbol
 _atom_site_label
 _atom_site_symmetry_multiplicity
 _atom_site_fract_x
 _atom_site_fract_y
 _atom_site_fract_z
 _atom_site_fract_occupancy
 C  C1  1  0.50000  0.85123  0.45823  1
 C  C2  1  0.50000  0.54177  0.14877  1
 Co  Co1  1  0.50000  0.39251  0.60749  1
 Th  Th1  1  0.00000  -0.00051  0.00051  1
