CIF file written using JARVIS-Tools package.
data_H13C4NF2
_symmetry_space_group_name_H-M  'Pmmn'
_cell_length_a       5.25042
_cell_length_b       6.4031
_cell_length_c       8.57821
_cell_angle_alpha    90
_cell_angle_beta     90
_cell_angle_gamma    90

_symmetry_Int_Tables_number  59
_chemical_formula_structural  H13C4NF2
_chemical_formula_sum  H26C8N2F4
_cell_volume  288.3906927666852
_cell_formula_units_Z  2
loop_
  _symmetry_equiv_pos_site_id
 _symmetry_equiv_pos_as_xyz
 1  'x, y, z'
loop_
 _atom_site_type_symbol
 _atom_site_label
 _atom_site_symmetry_multiplicity
 _atom_site_fract_x
 _atom_site_fract_y
 _atom_site_fract_z
 _atom_site_fract_occupancy
 C  C1  1  0.86047  0.75000  0.39339  1
 C  C2  1  0.13953  0.25000  0.60661  1
 C  C3  1  0.80947  0.44107  0.75000  1
 C  C4  1  0.19053  0.55893  0.25000  1
 C  C5  1  0.13953  0.25000  0.89339  1
 C  C6  1  0.19053  0.94107  0.25000  1
 C  C7  1  0.86047  0.75000  0.10661  1
 C  C8  1  0.80947  0.05893  0.75000  1
 F  F1  1  0.63730  0.25000  0.38454  1
 F  F2  1  0.36270  0.75000  0.88454  1
 F  F3  1  0.36270  0.75000  0.61546  1
 F  F4  1  0.63730  0.25000  0.11546  1
 H  H1  1  0.30874  0.56046  0.14472  1
 H  H2  1  0.25733  0.10851  0.89218  1
 H  H3  1  0.25733  0.39149  0.60782  1
 H  H4  1  0.93462  0.57808  0.75000  1
 H  H5  1  0.30874  0.56046  0.35528  1
 H  H6  1  0.06538  0.42192  0.25000  1
 H  H7  1  0.98790  0.75000  0.00525  1
 H  H8  1  0.93462  0.92192  0.75000  1
 H  H9  1  0.74267  0.89149  0.39218  1
 H  H10  1  0.63364  0.25000  0.25000  1
 H  H11  1  0.74267  0.89149  0.10782  1
 H  H12  1  0.25733  0.10851  0.60782  1
 H  H13  1  0.74267  0.60851  0.39218  1
 H  H14  1  0.25733  0.39149  0.89218  1
 H  H15  1  0.01210  0.25000  0.50525  1
 H  H16  1  0.98790  0.75000  0.49475  1
 H  H17  1  0.74267  0.60851  0.10782  1
 H  H18  1  0.06538  0.07808  0.25000  1
 H  H19  1  0.01210  0.25000  0.99475  1
 H  H20  1  0.30874  0.93954  0.35528  1
 H  H21  1  0.30874  0.93954  0.14472  1
 H  H22  1  0.36636  0.75000  0.75000  1
 H  H23  1  0.69126  0.06046  0.85528  1
 H  H24  1  0.69126  0.06046  0.64472  1
 H  H25  1  0.69126  0.43954  0.64472  1
 H  H26  1  0.69126  0.43954  0.85528  1
 N  N1  1  0.97498  0.25000  0.75000  1
 N  N2  1  0.02502  0.75000  0.25000  1
