CIF file written using JARVIS-Tools package.
data_RbInBr3
_symmetry_space_group_name_H-M  'R3c'
_cell_length_a       7.87256
_cell_length_b       7.87256
_cell_length_c       7.87256
_cell_angle_alpha    61.3789
_cell_angle_beta     61.3789
_cell_angle_gamma    61.3789

_symmetry_Int_Tables_number  161
_chemical_formula_structural  RbInBr3
_chemical_formula_sum  Rb2In2Br6
_cell_volume  355.69956090388314
_cell_formula_units_Z  2
loop_
  _symmetry_equiv_pos_site_id
 _symmetry_equiv_pos_as_xyz
 1  'x, y, z'
loop_
 _atom_site_type_symbol
 _atom_site_label
 _atom_site_symmetry_multiplicity
 _atom_site_fract_x
 _atom_site_fract_y
 _atom_site_fract_z
 _atom_site_fract_occupancy
 Br  Br1  1  0.25547  0.81999  0.69132  1
 Br  Br2  1  0.81999  0.69132  0.25547  1
 Br  Br3  1  0.69132  0.25547  0.81999  1
 Br  Br4  1  0.19132  0.31999  0.75547  1
 Br  Br5  1  0.75547  0.19132  0.31999  1
 Br  Br6  1  0.31999  0.75547  0.19132  1
 In  In1  1  0.00569  0.00569  0.00569  1
 In  In2  1  0.50569  0.50569  0.50569  1
 Rb  Rb1  1  0.25603  0.25603  0.25603  1
 Rb  Rb2  1  0.75603  0.75603  0.75603  1
