CIF file written using JARVIS-Tools package.
data_Li2CoNi2O6
_symmetry_space_group_name_H-M  'Cmc2_1'
_cell_length_a       4.89468
_cell_length_b       4.93664
_cell_length_c       9.58708
_cell_angle_alpha    90.0001
_cell_angle_beta     90.0062
_cell_angle_gamma    59.717

_symmetry_Int_Tables_number  36
_chemical_formula_structural  Li2CoNi2O6
_chemical_formula_sum  Li4Co2Ni4O2
_cell_volume  200.04499364786554
_cell_formula_units_Z  2
loop_
  _symmetry_equiv_pos_site_id
 _symmetry_equiv_pos_as_xyz
 1  'x, y, z'
loop_
 _atom_site_type_symbol
 _atom_site_label
 _atom_site_symmetry_multiplicity
 _atom_site_fract_x
 _atom_site_fract_y
 _atom_site_fract_z
 _atom_site_fract_occupancy
 Co  Co1  1  -0.00023  0.91716  -0.00503  1
 Co  Co2  1  0.00001  0.58172  0.49497  1
 Li  Li1  1  0.33332  0.24714  0.74392  1
 Li  Li2  1  0.66660  0.25171  0.24391  1
 Li  Li3  1  0.66703  0.58031  0.74392  1
 Li  Li4  1  0.33291  0.91853  0.24392  1
 Ni  Ni1  1  0.33052  0.25432  0.00301  1
 Ni  Ni2  1  0.33078  0.91381  0.50300  1
 Ni  Ni3  1  0.66926  0.24456  0.50300  1
 Ni  Ni4  1  0.66900  0.58508  0.00300  1
 O  O1  1  0.66362  0.58125  0.39443  1
 O  O2  1  -0.00022  0.23431  0.10563  1
 O  O3  1  -0.00027  0.57903  0.89606  1
 O  O4  1  0.33611  0.91766  0.89444  1
 O  O5  1  0.00006  0.26454  0.60562  1
 O  O6  1  0.66341  0.25398  0.89442  1
 O  O7  1  0.33482  0.56936  0.60532  1
 O  O8  1  0.33457  0.59471  0.10533  1
 O  O9  1  0.66502  -0.07049  0.10532  1
 O  O10  1  -0.00001  0.91987  0.39605  1
 O  O11  1  0.33633  0.24491  0.39442  1
 O  O12  1  0.66527  0.90414  0.60532  1
