CIF file written using JARVIS-Tools package.
data_RbSnBr3
_symmetry_space_group_name_H-M  'P1'
_cell_length_a       5.80367
_cell_length_b       5.806
_cell_length_c       5.81534
_cell_angle_alpha    89.3397
_cell_angle_beta     89.8221
_cell_angle_gamma    89.9013

_symmetry_Int_Tables_number  1
_chemical_formula_structural  RbSnBr3
_chemical_formula_sum  RbSnBr3
_cell_volume  195.93993518287192
_cell_formula_units_Z  1
loop_
  _symmetry_equiv_pos_site_id
 _symmetry_equiv_pos_as_xyz
 1  'x, y, z'
loop_
 _atom_site_type_symbol
 _atom_site_label
 _atom_site_symmetry_multiplicity
 _atom_site_fract_x
 _atom_site_fract_y
 _atom_site_fract_z
 _atom_site_fract_occupancy
 Br  Br1  1  0.49055  0.47623  0.97877  1
 Br  Br2  1  0.49334  0.98665  0.46464  1
 Br  Br3  1  0.99315  0.48785  0.46581  1
 Rb  Rb1  1  -0.00058  0.01115  0.03874  1
 Sn  Sn1  1  0.49354  0.48812  0.48204  1
