CIF file written using JARVIS-Tools package.
data_RbSrCl3
_symmetry_space_group_name_H-M  'P1'
_cell_length_a       5.65929
_cell_length_b       5.65001
_cell_length_c       5.62201
_cell_angle_alpha    89.9943
_cell_angle_beta     89.9941
_cell_angle_gamma    90.946

_symmetry_Int_Tables_number  1
_chemical_formula_structural  RbSrCl3
_chemical_formula_sum  RbSrCl3
_cell_volume  179.73974426414705
_cell_formula_units_Z  1
loop_
  _symmetry_equiv_pos_site_id
 _symmetry_equiv_pos_as_xyz
 1  'x, y, z'
loop_
 _atom_site_type_symbol
 _atom_site_label
 _atom_site_symmetry_multiplicity
 _atom_site_fract_x
 _atom_site_fract_y
 _atom_site_fract_z
 _atom_site_fract_occupancy
 Cl  Cl1  1  0.55699  0.51381  0.00004  1
 Cl  Cl2  1  0.01672  0.45872  0.50051  1
 Cl  Cl3  1  0.54160  -0.00077  0.50002  1
 Rb  Rb1  1  -0.06796  0.03769  -0.00057  1
 Sr  Sr1  1  0.51265  0.50056  0.50000  1
