CIF file written using JARVIS-Tools package.
data_CuAg3
_symmetry_space_group_name_H-M  'P6_3/mmc'
_cell_length_a       5.6835
_cell_length_b       5.6835
_cell_length_c       4.65443
_cell_angle_alpha    90
_cell_angle_beta     90
_cell_angle_gamma    120

_symmetry_Int_Tables_number  194
_chemical_formula_structural  CuAg3
_chemical_formula_sum  Cu2Ag6
_cell_volume  130.20555659148584
_cell_formula_units_Z  2
loop_
  _symmetry_equiv_pos_site_id
 _symmetry_equiv_pos_as_xyz
 1  'x, y, z'
loop_
 _atom_site_type_symbol
 _atom_site_label
 _atom_site_symmetry_multiplicity
 _atom_site_fract_x
 _atom_site_fract_y
 _atom_site_fract_z
 _atom_site_fract_occupancy
 Ag  Ag1  1  0.83090  0.66180  0.75000  1
 Ag  Ag2  1  0.83090  0.16910  0.75000  1
 Ag  Ag3  1  0.33820  0.16910  0.75000  1
 Ag  Ag4  1  0.16910  0.33820  0.25000  1
 Ag  Ag5  1  0.16910  0.83090  0.25000  1
 Ag  Ag6  1  0.66180  0.83090  0.25000  1
 Cu  Cu1  1  0.66667  0.33333  0.25000  1
 Cu  Cu2  1  0.33333  0.66667  0.75000  1
