CIF file written using JARVIS-Tools package.
data_MnC2O6
_symmetry_space_group_name_H-M  'P2_1/c'
_cell_length_a       6.02461
_cell_length_b       7.56196
_cell_length_c       4.8484
_cell_angle_alpha    90
_cell_angle_beta     71.452
_cell_angle_gamma    90

_symmetry_Int_Tables_number  14
_chemical_formula_structural  MnC2O6
_chemical_formula_sum  Mn2C4O2
_cell_volume  209.40973711594552
_cell_formula_units_Z  2
loop_
  _symmetry_equiv_pos_site_id
 _symmetry_equiv_pos_as_xyz
 1  'x, y, z'
loop_
 _atom_site_type_symbol
 _atom_site_label
 _atom_site_symmetry_multiplicity
 _atom_site_fract_x
 _atom_site_fract_y
 _atom_site_fract_z
 _atom_site_fract_occupancy
 C  C1  1  0.12272  0.27128  0.77386  1
 C  C2  1  0.37728  0.77128  0.72614  1
 C  C3  1  0.62272  0.22872  0.27386  1
 C  C4  1  0.87728  0.72872  0.22614  1
 Mn  Mn1  1  0.00000  0.00000  0.00000  1
 Mn  Mn2  1  0.50000  0.50000  0.50000  1
 O  O1  1  0.10971  0.23918  0.04114  1
 O  O2  1  0.05239  0.14350  0.64710  1
 O  O3  1  0.94761  0.85650  0.35290  1
 O  O4  1  0.30316  0.92058  0.85313  1
 O  O5  1  0.19684  0.42058  0.64687  1
 O  O6  1  0.55239  0.35650  0.14710  1
 O  O7  1  0.60971  0.26082  0.54114  1
 O  O8  1  0.44761  0.64350  0.85290  1
 O  O9  1  0.69684  0.07942  0.14687  1
 O  O10  1  0.80316  0.57942  0.35313  1
 O  O11  1  0.39029  0.73918  0.45886  1
 O  O12  1  0.89029  0.76082  0.95886  1
