CIF file written using JARVIS-Tools package.
data_Ac3Sc
_symmetry_space_group_name_H-M  'P6_3/mmc'
_cell_length_a       7.7223
_cell_length_b       7.7223
_cell_length_c       6.09879
_cell_angle_alpha    90
_cell_angle_beta     90
_cell_angle_gamma    120

_symmetry_Int_Tables_number  194
_chemical_formula_structural  Ac3Sc
_chemical_formula_sum  Ac6Sc2
_cell_volume  314.96941610009657
_cell_formula_units_Z  2
loop_
  _symmetry_equiv_pos_site_id
 _symmetry_equiv_pos_as_xyz
 1  'x, y, z'
loop_
 _atom_site_type_symbol
 _atom_site_label
 _atom_site_symmetry_multiplicity
 _atom_site_fract_x
 _atom_site_fract_y
 _atom_site_fract_z
 _atom_site_fract_occupancy
 Ac  Ac1  1  0.17203  0.34405  0.75000  1
 Ac  Ac2  1  0.65595  0.82797  0.75000  1
 Ac  Ac3  1  0.82797  0.65595  0.25000  1
 Ac  Ac4  1  0.34405  0.17203  0.25000  1
 Ac  Ac5  1  0.17203  0.82797  0.75000  1
 Ac  Ac6  1  0.82797  0.17203  0.25000  1
 Sc  Sc1  1  0.66667  0.33333  0.75000  1
 Sc  Sc2  1  0.33333  0.66667  0.25000  1
