CIF file written using JARVIS-Tools package.
data_RbCaI3
_symmetry_space_group_name_H-M  'Pnma'
_cell_length_a       4.63794
_cell_length_b       10.3546
_cell_length_c       17.0603
_cell_angle_alpha    90
_cell_angle_beta     90
_cell_angle_gamma    90

_symmetry_Int_Tables_number  62
_chemical_formula_structural  RbCaI3
_chemical_formula_sum  Rb4Ca4I2
_cell_volume  819.3032745127078
_cell_formula_units_Z  4
loop_
  _symmetry_equiv_pos_site_id
 _symmetry_equiv_pos_as_xyz
 1  'x, y, z'
loop_
 _atom_site_type_symbol
 _atom_site_label
 _atom_site_symmetry_multiplicity
 _atom_site_fract_x
 _atom_site_fract_y
 _atom_site_fract_z
 _atom_site_fract_occupancy
 Ca  Ca1  1  0.25000  0.16706  0.05614  1
 Ca  Ca2  1  0.75000  0.83294  0.94386  1
 Ca  Ca3  1  0.25000  0.66706  0.44386  1
 Ca  Ca4  1  0.75000  0.33294  0.55614  1
 I  I1  1  0.25000  0.29543  0.21627  1
 I  I2  1  0.75000  0.33749  0.98935  1
 I  I3  1  0.25000  0.79543  0.28373  1
 I  I4  1  0.75000  0.83749  0.51065  1
 I  I5  1  0.25000  0.16251  0.48935  1
 I  I6  1  0.25000  0.66251  0.01065  1
 I  I7  1  0.75000  0.97634  0.10726  1
 I  I8  1  0.75000  0.20457  0.71627  1
 I  I9  1  0.75000  0.47634  0.39274  1
 I  I10  1  0.25000  0.02366  0.89274  1
 I  I11  1  0.75000  0.70457  0.78373  1
 I  I12  1  0.25000  0.52366  0.60726  1
 Rb  Rb1  1  0.25000  0.42837  0.82369  1
 Rb  Rb2  1  0.75000  0.57163  0.17631  1
 Rb  Rb3  1  0.25000  0.92837  0.67631  1
 Rb  Rb4  1  0.75000  0.07163  0.32369  1
