CIF file written using JARVIS-Tools package.
data_ThTe2I2
_symmetry_space_group_name_H-M  'C2/m'
_cell_length_a       7.67053
_cell_length_b       7.75792
_cell_length_c       8.19409
_cell_angle_alpha    80.4119
_cell_angle_beta     62.0962
_cell_angle_gamma    69.1565

_symmetry_Int_Tables_number  12
_chemical_formula_structural  ThTe2I2
_chemical_formula_sum  Th2Te4I4
_cell_volume  402.71569058141745
_cell_formula_units_Z  2
loop_
  _symmetry_equiv_pos_site_id
 _symmetry_equiv_pos_as_xyz
 1  'x, y, z'
loop_
 _atom_site_type_symbol
 _atom_site_label
 _atom_site_symmetry_multiplicity
 _atom_site_fract_x
 _atom_site_fract_y
 _atom_site_fract_z
 _atom_site_fract_occupancy
 I  I1  1  0.02236  0.25522  0.41593  1
 I  I2  1  0.56166  0.74485  0.41584  1
 I  I3  1  0.97764  0.74478  0.58407  1
 I  I4  1  0.43834  0.25515  0.58416  1
 Te  Te1  1  0.13197  0.65495  0.00002  1
 Te  Te2  1  0.86803  0.34505  0.99998  1
 Te  Te3  1  0.65386  0.12116  0.99996  1
 Te  Te4  1  0.34614  0.87884  0.00004  1
 Th  Th1  1  0.85813  0.00002  0.28372  1
 Th  Th2  1  0.14187  0.99998  0.71628  1
