CIF file written using JARVIS-Tools package.
data_KAgO2
_symmetry_space_group_name_H-M  'C2/c'
_cell_length_a       5.40387
_cell_length_b       5.40387
_cell_length_c       5.84246
_cell_angle_alpha    101.655
_cell_angle_beta     101.655
_cell_angle_gamma    102.719

_symmetry_Int_Tables_number  15
_chemical_formula_structural  KAgO2
_chemical_formula_sum  K2Ag2O4
_cell_volume  157.473397930843
_cell_formula_units_Z  2
loop_
  _symmetry_equiv_pos_site_id
 _symmetry_equiv_pos_as_xyz
 1  'x, y, z'
loop_
 _atom_site_type_symbol
 _atom_site_label
 _atom_site_symmetry_multiplicity
 _atom_site_fract_x
 _atom_site_fract_y
 _atom_site_fract_z
 _atom_site_fract_occupancy
 Ag  Ag1  1  0.50000  0.50000  -0.00000  1
 Ag  Ag2  1  0.50000  0.50000  0.50000  1
 K  K1  1  0.86092  0.13908  0.25000  1
 K  K2  1  0.13908  0.86092  0.75000  1
 O  O1  1  0.65185  0.76091  0.82705  1
 O  O2  1  0.34815  0.23909  0.17295  1
 O  O3  1  0.23909  0.34815  0.67295  1
 O  O4  1  0.76091  0.65185  0.32705  1
