CIF file written using JARVIS-Tools package.
data_CaSnS3
_symmetry_space_group_name_H-M  'P2_1/c'
_cell_length_a       7.2893
_cell_length_b       9.94247
_cell_length_c       7.29511
_cell_angle_alpha    90
_cell_angle_beta     101.416
_cell_angle_gamma    90

_symmetry_Int_Tables_number  14
_chemical_formula_structural  CaSnS3
_chemical_formula_sum  Ca4Sn4S2
_cell_volume  518.2436859325571
_cell_formula_units_Z  4
loop_
  _symmetry_equiv_pos_site_id
 _symmetry_equiv_pos_as_xyz
 1  'x, y, z'
loop_
 _atom_site_type_symbol
 _atom_site_label
 _atom_site_symmetry_multiplicity
 _atom_site_fract_x
 _atom_site_fract_y
 _atom_site_fract_z
 _atom_site_fract_occupancy
 Ca  Ca1  1  0.76399  0.39163  0.10398  1
 Ca  Ca2  1  0.73601  0.89163  0.89602  1
 Ca  Ca3  1  0.23601  0.60837  0.89602  1
 Ca  Ca4  1  0.26399  0.10837  0.10398  1
 S  S1  1  0.18130  0.28644  0.42835  1
 S  S2  1  0.06475  0.34117  0.90841  1
 S  S3  1  0.81870  0.71356  0.57165  1
 S  S4  1  0.68130  0.21356  0.42835  1
 S  S5  1  0.31870  0.78644  0.57165  1
 S  S6  1  0.56541  0.52046  0.77870  1
 S  S7  1  0.06541  0.97954  0.77870  1
 S  S8  1  0.93525  0.65883  0.09159  1
 S  S9  1  0.93459  0.02046  0.22130  1
 S  S10  1  0.56475  0.15883  0.90841  1
 S  S11  1  0.43459  0.47954  0.22130  1
 S  S12  1  0.43525  0.84117  0.09159  1
 Sn  Sn1  1  0.51110  0.69220  0.35995  1
 Sn  Sn2  1  0.98890  0.19220  0.64005  1
 Sn  Sn3  1  0.48890  0.30780  0.64005  1
 Sn  Sn4  1  0.01110  0.80780  0.35995  1
