CIF file written using JARVIS-Tools package.
data_ScC
_symmetry_space_group_name_H-M  'P6_3/mmc'
_cell_length_a       3.20993
_cell_length_b       3.21061
_cell_length_c       5.93973
_cell_angle_alpha    90
_cell_angle_beta     90
_cell_angle_gamma    119.993

_symmetry_Int_Tables_number  194
_chemical_formula_structural  ScC
_chemical_formula_sum  Sc2C2
_cell_volume  53.01662272487492
_cell_formula_units_Z  2
loop_
  _symmetry_equiv_pos_site_id
 _symmetry_equiv_pos_as_xyz
 1  'x, y, z'
loop_
 _atom_site_type_symbol
 _atom_site_label
 _atom_site_symmetry_multiplicity
 _atom_site_fract_x
 _atom_site_fract_y
 _atom_site_fract_z
 _atom_site_fract_occupancy
 C  C1  1  0.33328  0.66657  0.25000  1
 C  C2  1  0.66672  0.33343  0.75000  1
 Sc  Sc1  1  0.00000  0.00000  0.50000  1
 Sc  Sc2  1  0.00000  0.00000  0.00000  1
