CIF file written using JARVIS-Tools package.
data_AlH3O3
_symmetry_space_group_name_H-M  'P-1'
_cell_length_a       5.00668
_cell_length_b       5.09633
_cell_length_c       5.36095
_cell_angle_alpha    110.214
_cell_angle_beta     97.2575
_cell_angle_gamma    119.874

_symmetry_Int_Tables_number  2
_chemical_formula_structural  AlH3O3
_chemical_formula_sum  Al2H6O6
_cell_volume  103.550393444019
_cell_formula_units_Z  2
loop_
  _symmetry_equiv_pos_site_id
 _symmetry_equiv_pos_as_xyz
 1  'x, y, z'
loop_
 _atom_site_type_symbol
 _atom_site_label
 _atom_site_symmetry_multiplicity
 _atom_site_fract_x
 _atom_site_fract_y
 _atom_site_fract_z
 _atom_site_fract_occupancy
 Al  Al1  1  0.16923  0.33549  0.00274  1
 Al  Al2  1  0.83077  0.66451  0.99726  1
 H  H1  1  0.56225  0.87617  0.79236  1
 H  H2  1  0.09085  0.66524  0.42615  1
 H  H3  1  0.43775  0.12383  0.20764  1
 H  H4  1  0.90915  0.33476  0.57385  1
 H  H5  1  0.67083  0.79246  0.42573  1
 H  H6  1  0.32917  0.20754  0.57427  1
 O  O1  1  0.24006  0.12002  0.21221  1
 O  O2  1  0.03761  0.50328  0.77636  1
 O  O3  1  0.96239  0.49672  0.22364  1
 O  O4  1  0.40039  0.23977  0.77072  1
 O  O5  1  0.75994  0.87998  0.78779  1
 O  O6  1  0.59961  0.76023  0.22928  1
