CIF file written using JARVIS-Tools package.
data_KPPdS4
_symmetry_space_group_name_H-M  'P4_2/mnm'
_cell_length_a       8.63494
_cell_length_b       8.63494
_cell_length_c       10.3978
_cell_angle_alpha    90
_cell_angle_beta     90
_cell_angle_gamma    90

_symmetry_Int_Tables_number  136
_chemical_formula_structural  KPPdS4
_chemical_formula_sum  K4P4Pd4S6
_cell_volume  775.2831595047692
_cell_formula_units_Z  4
loop_
  _symmetry_equiv_pos_site_id
 _symmetry_equiv_pos_as_xyz
 1  'x, y, z'
loop_
 _atom_site_type_symbol
 _atom_site_label
 _atom_site_symmetry_multiplicity
 _atom_site_fract_x
 _atom_site_fract_y
 _atom_site_fract_z
 _atom_site_fract_occupancy
 K  K1  1  0.00000  0.50000  0.75000  1
 K  K2  1  0.50000  0.00000  0.75000  1
 K  K3  1  0.50000  0.00000  0.25000  1
 K  K4  1  0.00000  0.50000  0.25000  1
 P  P1  1  0.74923  0.74923  0.00000  1
 P  P2  1  0.25077  0.25077  0.00000  1
 P  P3  1  0.24923  0.75077  0.50000  1
 P  P4  1  0.75077  0.24923  0.50000  1
 Pd  Pd1  1  0.50000  0.50000  0.50000  1
 Pd  Pd2  1  0.00000  0.00000  0.00000  1
 Pd  Pd3  1  0.50000  0.50000  0.00000  1
 Pd  Pd4  1  0.00000  0.00000  0.50000  1
 S  S1  1  0.35722  0.35722  0.15310  1
 S  S2  1  0.27116  0.01258  0.00000  1
 S  S3  1  0.14278  0.85722  0.34690  1
 S  S4  1  0.85722  0.14278  0.34690  1
 S  S5  1  0.64278  0.64278  0.84690  1
 S  S6  1  0.35722  0.35722  0.84690  1
 S  S7  1  0.64278  0.64278  0.15310  1
 S  S8  1  0.77116  0.48742  0.50000  1
 S  S9  1  0.51258  0.22884  0.50000  1
 S  S10  1  0.48742  0.77116  0.50000  1
 S  S11  1  0.98742  0.72884  0.00000  1
 S  S12  1  0.01258  0.27116  0.00000  1
 S  S13  1  0.14278  0.85722  0.65310  1
 S  S14  1  0.22884  0.51258  0.50000  1
 S  S15  1  0.85722  0.14278  0.65310  1
 S  S16  1  0.72884  0.98742  0.00000  1
