CIF file written using JARVIS-Tools package.
data_VC2O6
_symmetry_space_group_name_H-M  'R-3'
_cell_length_a       4.77723
_cell_length_b       5.87819
_cell_length_c       4.77723
_cell_angle_alpha    113.976
_cell_angle_beta     59.9999
_cell_angle_gamma    113.976

_symmetry_Int_Tables_number  148
_chemical_formula_structural  VC2O6
_chemical_formula_sum  VC2O6
_cell_volume  102.59561149810362
_cell_formula_units_Z  1
loop_
  _symmetry_equiv_pos_site_id
 _symmetry_equiv_pos_as_xyz
 1  'x, y, z'
loop_
 _atom_site_type_symbol
 _atom_site_label
 _atom_site_symmetry_multiplicity
 _atom_site_fract_x
 _atom_site_fract_y
 _atom_site_fract_z
 _atom_site_fract_occupancy
 C  C1  1  0.59852  0.79556  0.59852  1
 C  C2  1  0.40148  0.20444  0.40148  1
 O  O1  1  0.30279  0.79225  0.65677  1
 O  O2  1  0.34323  0.20775  0.16732  1
 O  O3  1  0.16732  0.20775  0.69721  1
 O  O4  1  0.83268  0.79225  0.30279  1
 O  O5  1  0.65677  0.79225  0.83268  1
 O  O6  1  0.69721  0.20775  0.34323  1
 V  V1  1  0.00000  0.00000  0.00000  1
