CIF file written using JARVIS-Tools package.
data_AgClO2
_symmetry_space_group_name_H-M  'P2_1/m'
_cell_length_a       4.08583
_cell_length_b       3.52521
_cell_length_c       9.49664
_cell_angle_alpha    90
_cell_angle_beta     98.2672
_cell_angle_gamma    90

_symmetry_Int_Tables_number  11
_chemical_formula_structural  AgClO2
_chemical_formula_sum  Ag2Cl2O4
_cell_volume  135.3626901318555
_cell_formula_units_Z  2
loop_
  _symmetry_equiv_pos_site_id
 _symmetry_equiv_pos_as_xyz
 1  'x, y, z'
loop_
 _atom_site_type_symbol
 _atom_site_label
 _atom_site_symmetry_multiplicity
 _atom_site_fract_x
 _atom_site_fract_y
 _atom_site_fract_z
 _atom_site_fract_occupancy
 Ag  Ag1  1  0.20012  0.75000  0.85529  1
 Ag  Ag2  1  0.79988  0.25000  0.14471  1
 Cl  Cl1  1  0.69641  0.25000  0.84865  1
 Cl  Cl2  1  0.30359  0.75000  0.15135  1
 O  O1  1  0.09181  0.75000  0.59337  1
 O  O2  1  0.79957  0.75000  0.53445  1
 O  O3  1  0.20043  0.25000  0.46555  1
 O  O4  1  0.90819  0.25000  0.40663  1
