CIF file written using JARVIS-Tools package.
data_ScAl
_symmetry_space_group_name_H-M  'Cmcm'
_cell_length_a       4.35892
_cell_length_b       3.33967
_cell_length_c       5.79405
_cell_angle_alpha    106.75
_cell_angle_beta     90
_cell_angle_gamma    90

_symmetry_Int_Tables_number  63
_chemical_formula_structural  ScAl
_chemical_formula_sum  Sc2Al2
_cell_volume  80.76729453032537
_cell_formula_units_Z  2
loop_
  _symmetry_equiv_pos_site_id
 _symmetry_equiv_pos_as_xyz
 1  'x, y, z'
loop_
 _atom_site_type_symbol
 _atom_site_label
 _atom_site_symmetry_multiplicity
 _atom_site_fract_x
 _atom_site_fract_y
 _atom_site_fract_z
 _atom_site_fract_occupancy
 Al  Al1  1  0.25000  0.42954  0.85907  1
 Al  Al2  1  0.75000  0.57046  0.14093  1
 Sc  Sc1  1  0.25000  0.16234  0.32467  1
 Sc  Sc2  1  0.75000  0.83766  0.67533  1
