CIF file written using JARVIS-Tools package.
data_LiMnPO4
_symmetry_space_group_name_H-M  'Pnma'
_cell_length_a       5.3172
_cell_length_b       8.59411
_cell_length_c       9.10415
_cell_angle_alpha    90
_cell_angle_beta     90
_cell_angle_gamma    90

_symmetry_Int_Tables_number  62
_chemical_formula_structural  LiMnPO4
_chemical_formula_sum  Li4Mn4P4O6
_cell_volume  416.028665617547
_cell_formula_units_Z  4
loop_
  _symmetry_equiv_pos_site_id
 _symmetry_equiv_pos_as_xyz
 1  'x, y, z'
loop_
 _atom_site_type_symbol
 _atom_site_label
 _atom_site_symmetry_multiplicity
 _atom_site_fract_x
 _atom_site_fract_y
 _atom_site_fract_z
 _atom_site_fract_occupancy
 Li  Li1  1  0.25000  0.12634  0.89813  1
 Li  Li2  1  0.75000  0.62634  0.60187  1
 Li  Li3  1  0.25000  0.37366  0.39813  1
 Li  Li4  1  0.75000  0.87366  0.10187  1
 Mn  Mn1  1  0.25000  0.37432  0.10166  1
 Mn  Mn2  1  0.75000  0.87432  0.39834  1
 Mn  Mn3  1  0.25000  0.12568  0.60166  1
 Mn  Mn4  1  0.75000  0.62568  0.89834  1
 O  O1  1  0.48827  0.57381  0.74426  1
 O  O2  1  0.98827  0.07381  0.75574  1
 O  O3  1  0.75000  0.86604  0.61571  1
 O  O4  1  0.75000  0.86658  0.89412  1
 O  O5  1  0.01173  0.57381  0.74426  1
 O  O6  1  0.51173  0.42619  0.25574  1
 O  O7  1  0.25000  0.36658  0.60588  1
 O  O8  1  0.25000  0.36604  0.88429  1
 O  O9  1  0.75000  0.63342  0.39412  1
 O  O10  1  0.75000  0.63396  0.11571  1
 O  O11  1  0.01173  0.92619  0.24426  1
 O  O12  1  0.25000  0.13396  0.38429  1
 O  O13  1  0.51173  0.07381  0.75574  1
 O  O14  1  0.98827  0.42619  0.25574  1
 O  O15  1  0.48827  0.92619  0.24426  1
 O  O16  1  0.25000  0.13342  0.10588  1
 P  P1  1  0.75000  0.97085  0.75543  1
 P  P2  1  0.25000  0.47085  0.74457  1
 P  P3  1  0.75000  0.52915  0.25543  1
 P  P4  1  0.25000  0.02915  0.24457  1
