CIF file written using JARVIS-Tools package.
data_SrAgO2
_symmetry_space_group_name_H-M  'P4/mmm'
_cell_length_a       5.40256
_cell_length_b       5.40256
_cell_length_c       5.40256
_cell_angle_alpha    77.2413
_cell_angle_beta     67.0718
_cell_angle_gamma    112.928

_symmetry_Int_Tables_number  123
_chemical_formula_structural  SrAgO2
_chemical_formula_sum  Sr2Ag2O4
_cell_volume  120.15913227809412
_cell_formula_units_Z  2
loop_
  _symmetry_equiv_pos_site_id
 _symmetry_equiv_pos_as_xyz
 1  'x, y, z'
loop_
 _atom_site_type_symbol
 _atom_site_label
 _atom_site_symmetry_multiplicity
 _atom_site_fract_x
 _atom_site_fract_y
 _atom_site_fract_z
 _atom_site_fract_occupancy
 Ag  Ag1  1  -0.00000  0.50000  0.50000  1
 Ag  Ag2  1  0.00000  0.00000  0.00000  1
 O  O1  1  0.50000  0.25002  0.75002  1
 O  O2  1  -0.00004  0.24998  0.25002  1
 O  O3  1  0.50000  0.74998  0.24998  1
 O  O4  1  0.00004  0.75002  0.74998  1
 Sr  Sr1  1  0.50000  0.75000  0.75000  1
 Sr  Sr2  1  0.50000  0.25000  0.25000  1
