CIF file written using JARVIS-Tools package.
data_CaWN3
_symmetry_space_group_name_H-M  'C2/m'
_cell_length_a       3.64003
_cell_length_b       5.81219
_cell_length_c       7.45915
_cell_angle_alpha    105.473
_cell_angle_beta     104.123
_cell_angle_gamma    90

_symmetry_Int_Tables_number  12
_chemical_formula_structural  CaWN3
_chemical_formula_sum  Ca2W2N6
_cell_volume  147.13516772831747
_cell_formula_units_Z  2
loop_
  _symmetry_equiv_pos_site_id
 _symmetry_equiv_pos_as_xyz
 1  'x, y, z'
loop_
 _atom_site_type_symbol
 _atom_site_label
 _atom_site_symmetry_multiplicity
 _atom_site_fract_x
 _atom_site_fract_y
 _atom_site_fract_z
 _atom_site_fract_occupancy
 Ca  Ca1  1  0.59023  0.29082  0.18047  1
 Ca  Ca2  1  0.40977  0.70918  0.81953  1
 N  N1  1  0.13142  0.55150  0.26284  1
 N  N2  1  0.86858  0.44850  0.73716  1
 N  N3  1  0.96735  0.06157  0.93471  1
 N  N4  1  0.30863  0.97913  0.61726  1
 N  N5  1  0.03265  0.93843  0.06529  1
 N  N6  1  0.69137  0.02087  0.38274  1
 W  W1  1  0.15716  0.87187  0.31431  1
 W  W2  1  0.84284  0.12813  0.68569  1
