CIF file written using JARVIS-Tools package.
data_AlClO
_symmetry_space_group_name_H-M  'Pmmn'
_cell_length_a       3.17207
_cell_length_b       3.64008
_cell_length_c       7.80863
_cell_angle_alpha    90
_cell_angle_beta     90
_cell_angle_gamma    90

_symmetry_Int_Tables_number  59
_chemical_formula_structural  AlClO
_chemical_formula_sum  Al2Cl2O2
_cell_volume  90.16313276290659
_cell_formula_units_Z  2
loop_
  _symmetry_equiv_pos_site_id
 _symmetry_equiv_pos_as_xyz
 1  'x, y, z'
loop_
 _atom_site_type_symbol
 _atom_site_label
 _atom_site_symmetry_multiplicity
 _atom_site_fract_x
 _atom_site_fract_y
 _atom_site_fract_z
 _atom_site_fract_occupancy
 Al  Al1  1  0.50000  0.00000  0.10710  1
 Al  Al2  1  0.00000  0.50000  0.89290  1
 Cl  Cl1  1  0.00000  0.00000  0.32212  1
 Cl  Cl2  1  0.50000  0.50000  0.67788  1
 O  O1  1  0.50000  0.50000  0.04966  1
 O  O2  1  0.00000  0.00000  0.95034  1
