CIF file written using JARVIS-Tools package.
data_RbPbBr3
_symmetry_space_group_name_H-M  'P1'
_cell_length_a       5.92606
_cell_length_b       5.89253
_cell_length_c       5.94317
_cell_angle_alpha    89.9703
_cell_angle_beta     88.1816
_cell_angle_gamma    89.9415

_symmetry_Int_Tables_number  1
_chemical_formula_structural  RbPbBr3
_chemical_formula_sum  RbPbBr3
_cell_volume  207.42799951424323
_cell_formula_units_Z  1
loop_
  _symmetry_equiv_pos_site_id
 _symmetry_equiv_pos_as_xyz
 1  'x, y, z'
loop_
 _atom_site_type_symbol
 _atom_site_label
 _atom_site_symmetry_multiplicity
 _atom_site_fract_x
 _atom_site_fract_y
 _atom_site_fract_z
 _atom_site_fract_occupancy
 Br  Br1  1  0.56398  0.00013  0.47915  1
 Br  Br2  1  0.02118  0.49965  0.55485  1
 Br  Br3  1  0.53165  0.50066  0.00333  1
 Pb  Pb1  1  0.51506  0.50010  0.50053  1
 Rb  Rb1  1  -0.07187  -0.00054  0.95214  1
