CIF file written using JARVIS-Tools package.
data_AlICl6
_symmetry_space_group_name_H-M  'P2_1'
_cell_length_a       6.07874
_cell_length_b       10.8732
_cell_length_c       6.99655
_cell_angle_alpha    90
_cell_angle_beta     97.7515
_cell_angle_gamma    90

_symmetry_Int_Tables_number  4
_chemical_formula_structural  AlICl6
_chemical_formula_sum  Al2I2Cl2
_cell_volume  458.2121561563749
_cell_formula_units_Z  2
loop_
  _symmetry_equiv_pos_site_id
 _symmetry_equiv_pos_as_xyz
 1  'x, y, z'
loop_
 _atom_site_type_symbol
 _atom_site_label
 _atom_site_symmetry_multiplicity
 _atom_site_fract_x
 _atom_site_fract_y
 _atom_site_fract_z
 _atom_site_fract_occupancy
 Al  Al1  1  0.41233  0.08940  0.47701  1
 Al  Al2  1  0.58767  0.58940  0.52299  1
 Cl  Cl1  1  0.69577  0.77634  0.45363  1
 Cl  Cl2  1  0.30423  0.27634  0.54637  1
 Cl  Cl3  1  0.69581  0.20140  -0.00597  1
 Cl  Cl4  1  0.30419  0.70140  0.00597  1
 Cl  Cl5  1  0.19504  0.37729  0.03569  1
 Cl  Cl6  1  0.80496  0.87729  0.96431  1
 Cl  Cl7  1  0.30149  0.04935  0.18183  1
 Cl  Cl8  1  0.69851  0.54935  0.81817  1
 Cl  Cl9  1  0.77774  0.09807  0.49930  1
 Cl  Cl10  1  0.22226  0.59807  0.50070  1
 Cl  Cl11  1  0.69118  0.46105  0.32432  1
 Cl  Cl12  1  0.30882  0.96105  0.67568  1
 I  I1  1  0.01607  0.74810  0.19197  1
 I  I2  1  0.98393  0.24810  0.80803  1
