CIF file written using JARVIS-Tools package.
data_Zn2SiO4
_symmetry_space_group_name_H-M  'Pnma'
_cell_length_a       4.8417
_cell_length_b       6.08008
_cell_length_c       10.3695
_cell_angle_alpha    90
_cell_angle_beta     90
_cell_angle_gamma    90

_symmetry_Int_Tables_number  62
_chemical_formula_structural  Zn2SiO4
_chemical_formula_sum  Zn8Si4O6
_cell_volume  305.25638878535483
_cell_formula_units_Z  4
loop_
  _symmetry_equiv_pos_site_id
 _symmetry_equiv_pos_as_xyz
 1  'x, y, z'
loop_
 _atom_site_type_symbol
 _atom_site_label
 _atom_site_symmetry_multiplicity
 _atom_site_fract_x
 _atom_site_fract_y
 _atom_site_fract_z
 _atom_site_fract_occupancy
 O  O1  1  0.21880  0.03284  0.33524  1
 O  O2  1  0.26619  0.75000  0.59310  1
 O  O3  1  0.78120  0.53284  0.66476  1
 O  O4  1  0.73381  0.25000  0.40690  1
 O  O5  1  0.76619  0.25000  0.90690  1
 O  O6  1  0.71679  0.75000  0.94876  1
 O  O7  1  0.78321  0.75000  0.44876  1
 O  O8  1  0.23381  0.75000  0.09310  1
 O  O9  1  0.21679  0.25000  0.55124  1
 O  O10  1  0.78120  0.96716  0.66476  1
 O  O11  1  0.71880  0.53284  0.16476  1
 O  O12  1  0.21880  0.46716  0.33524  1
 O  O13  1  0.28120  0.03284  0.83524  1
 O  O14  1  0.71880  0.96716  0.16476  1
 O  O15  1  0.28120  0.46716  0.83524  1
 O  O16  1  0.28321  0.25000  0.05124  1
 Si  Si1  1  0.92799  0.75000  0.59652  1
 Si  Si2  1  0.57201  0.75000  0.09652  1
 Si  Si3  1  0.07201  0.25000  0.40348  1
 Si  Si4  1  0.42799  0.25000  0.90348  1
 Zn  Zn1  1  0.98347  0.25000  0.71905  1
 Zn  Zn2  1  0.51653  0.25000  0.21905  1
 Zn  Zn3  1  0.01653  0.75000  0.28095  1
 Zn  Zn4  1  0.48347  0.75000  0.78095  1
 Zn  Zn5  1  0.00000  0.00000  0.00000  1
 Zn  Zn6  1  0.50000  0.50000  0.50000  1
 Zn  Zn7  1  0.00000  0.50000  0.00000  1
 Zn  Zn8  1  0.50000  0.00000  0.50000  1
