CIF file written using JARVIS-Tools package.
data_TiPCl9
_symmetry_space_group_name_H-M  'P-1'
_cell_length_a       6.82301
_cell_length_b       8.84915
_cell_length_c       9.34727
_cell_angle_alpha    100.247
_cell_angle_beta     95.8835
_cell_angle_gamma    96.3126

_symmetry_Int_Tables_number  2
_chemical_formula_structural  TiPCl9
_chemical_formula_sum  Ti2P2Cl8
_cell_volume  547.6834276361235
_cell_formula_units_Z  2
loop_
  _symmetry_equiv_pos_site_id
 _symmetry_equiv_pos_as_xyz
 1  'x, y, z'
loop_
 _atom_site_type_symbol
 _atom_site_label
 _atom_site_symmetry_multiplicity
 _atom_site_fract_x
 _atom_site_fract_y
 _atom_site_fract_z
 _atom_site_fract_occupancy
 Cl  Cl1  1  0.28514  0.51472  0.55043  1
 Cl  Cl2  1  0.94679  0.71218  0.75711  1
 Cl  Cl3  1  0.84455  0.60427  0.11332  1
 Cl  Cl4  1  0.37489  0.58624  0.21699  1
 Cl  Cl5  1  0.62511  0.41376  0.78301  1
 Cl  Cl6  1  0.41460  0.16096  0.43925  1
 Cl  Cl7  1  0.58540  0.83904  0.56075  1
 Cl  Cl8  1  0.84145  0.09764  0.87898  1
 Cl  Cl9  1  0.05321  0.28782  0.24289  1
 Cl  Cl10  1  0.51550  0.24046  0.12287  1
 Cl  Cl11  1  0.15545  0.39573  0.88668  1
 Cl  Cl12  1  0.15855  0.90236  0.12102  1
 Cl  Cl13  1  0.71486  0.48528  0.44957  1
 Cl  Cl14  1  0.93617  0.19877  0.57852  1
 Cl  Cl15  1  0.06383  0.80123  0.42148  1
 Cl  Cl16  1  0.26327  0.05728  0.76677  1
 Cl  Cl17  1  0.73673  0.94272  0.23323  1
 Cl  Cl18  1  0.48450  0.75954  0.87713  1
 P  P1  1  0.95106  0.81091  0.22302  1
 P  P2  1  0.04894  0.18909  0.77698  1
 Ti  Ti1  1  0.61851  0.63469  0.68102  1
 Ti  Ti2  1  0.38149  0.36531  0.31898  1
