CIF file written using JARVIS-Tools package.
data_CaSnS3
_symmetry_space_group_name_H-M  'Pnma'
_cell_length_a       6.59108
_cell_length_b       6.91967
_cell_length_c       10.023
_cell_angle_alpha    90
_cell_angle_beta     90
_cell_angle_gamma    90

_symmetry_Int_Tables_number  62
_chemical_formula_structural  CaSnS3
_chemical_formula_sum  Ca4Sn4S2
_cell_volume  457.1283898848648
_cell_formula_units_Z  4
loop_
  _symmetry_equiv_pos_site_id
 _symmetry_equiv_pos_as_xyz
 1  'x, y, z'
loop_
 _atom_site_type_symbol
 _atom_site_label
 _atom_site_symmetry_multiplicity
 _atom_site_fract_x
 _atom_site_fract_y
 _atom_site_fract_z
 _atom_site_fract_occupancy
 Ca  Ca1  1  0.75839  0.25000  0.89916  1
 Ca  Ca2  1  0.25839  0.25000  0.60084  1
 Ca  Ca3  1  0.24161  0.75000  0.10084  1
 Ca  Ca4  1  0.74161  0.75000  0.39916  1
 S  S1  1  0.90206  0.25000  0.45005  1
 S  S2  1  0.88841  0.99592  0.15394  1
 S  S3  1  0.09794  0.75000  0.54995  1
 S  S4  1  0.59794  0.75000  0.95005  1
 S  S5  1  0.40206  0.25000  0.04995  1
 S  S6  1  0.38841  0.99592  0.34606  1
 S  S7  1  0.11159  0.00408  0.84606  1
 S  S8  1  0.11159  0.49592  0.84606  1
 S  S9  1  0.88841  0.50408  0.15394  1
 S  S10  1  0.61159  0.00408  0.65394  1
 S  S11  1  0.61159  0.49592  0.65394  1
 S  S12  1  0.38841  0.50408  0.34606  1
 Sn  Sn1  1  0.37095  0.75000  0.74497  1
 Sn  Sn2  1  0.87095  0.75000  0.75503  1
 Sn  Sn3  1  0.62905  0.25000  0.25503  1
 Sn  Sn4  1  0.12905  0.25000  0.24497  1
