CIF file written using JARVIS-Tools package.
data_SiHg3
_symmetry_space_group_name_H-M  'P6_3/mmc'
_cell_length_a       7.5969
_cell_length_b       7.5969
_cell_length_c       3.95888
_cell_angle_alpha    90
_cell_angle_beta     90
_cell_angle_gamma    120

_symmetry_Int_Tables_number  194
_chemical_formula_structural  SiHg3
_chemical_formula_sum  Si2Hg6
_cell_volume  197.86810543562214
_cell_formula_units_Z  2
loop_
  _symmetry_equiv_pos_site_id
 _symmetry_equiv_pos_as_xyz
 1  'x, y, z'
loop_
 _atom_site_type_symbol
 _atom_site_label
 _atom_site_symmetry_multiplicity
 _atom_site_fract_x
 _atom_site_fract_y
 _atom_site_fract_z
 _atom_site_fract_occupancy
 Hg  Hg1  1  0.64452  0.82226  0.75000  1
 Hg  Hg2  1  0.17774  0.35548  0.75000  1
 Hg  Hg3  1  0.17774  0.82226  0.75000  1
 Hg  Hg4  1  0.35548  0.17774  0.25000  1
 Hg  Hg5  1  0.82226  0.64452  0.25000  1
 Hg  Hg6  1  0.82226  0.17774  0.25000  1
 Si  Si1  1  0.33333  0.66667  0.25000  1
 Si  Si2  1  0.66667  0.33333  0.75000  1
