CIF file written using JARVIS-Tools package.
data_Ca2SnS4
_symmetry_space_group_name_H-M  'Ama2'
_cell_length_a       6.12021
_cell_length_b       6.12021
_cell_length_c       9.72622
_cell_angle_alpha    90
_cell_angle_beta     90
_cell_angle_gamma    110.289

_symmetry_Int_Tables_number  40
_chemical_formula_structural  Ca2SnS4
_chemical_formula_sum  Ca4Sn2S8
_cell_volume  341.7116791701104
_cell_formula_units_Z  2
loop_
  _symmetry_equiv_pos_site_id
 _symmetry_equiv_pos_as_xyz
 1  'x, y, z'
loop_
 _atom_site_type_symbol
 _atom_site_label
 _atom_site_symmetry_multiplicity
 _atom_site_fract_x
 _atom_site_fract_y
 _atom_site_fract_z
 _atom_site_fract_occupancy
 Ca  Ca1  1  0.14039  0.52481  0.25000  1
 Ca  Ca2  1  0.52481  0.14039  0.75000  1
 Ca  Ca3  1  0.79608  0.79608  0.50000  1
 Ca  Ca4  1  0.79608  0.79608  0.00000  1
 S  S1  1  0.92517  0.05191  0.25000  1
 S  S2  1  0.05191  0.92517  0.75000  1
 S  S3  1  0.61805  0.51024  0.25000  1
 S  S4  1  0.51024  0.61805  0.75000  1
 S  S5  1  0.34787  0.88038  0.44896  1
 S  S6  1  0.88038  0.34787  0.55104  1
 S  S7  1  0.34787  0.88038  0.05104  1
 S  S8  1  0.88038  0.34787  0.94896  1
 Sn  Sn1  1  0.54153  0.09796  0.25000  1
 Sn  Sn2  1  0.09796  0.54153  0.75000  1
