CIF file written using JARVIS-Tools package.
data_YbMg16Al12
_symmetry_space_group_name_H-M  'I-43m'
_cell_length_a       9.15834
_cell_length_b       9.15833
_cell_length_c       9.15834
_cell_angle_alpha    109.471
_cell_angle_beta     109.471
_cell_angle_gamma    109.471

_symmetry_Int_Tables_number  217
_chemical_formula_structural  YbMg16Al12
_chemical_formula_sum  YbMg6Al2
_cell_volume  591.3271014028347
_cell_formula_units_Z  1
loop_
  _symmetry_equiv_pos_site_id
 _symmetry_equiv_pos_as_xyz
 1  'x, y, z'
loop_
 _atom_site_type_symbol
 _atom_site_label
 _atom_site_symmetry_multiplicity
 _atom_site_fract_x
 _atom_site_fract_y
 _atom_site_fract_z
 _atom_site_fract_occupancy
 Al  Al1  1  0.18749  0.18749  0.81803  1
 Al  Al2  1  1.00000  0.63054  0.81251  1
 Al  Al3  1  0.81251  0.63054  1.00000  1
 Al  Al4  1  0.36946  0.36946  0.18197  1
 Al  Al5  1  0.18749  0.81803  0.18749  1
 Al  Al6  1  0.63054  0.81251  1.00000  1
 Al  Al7  1  0.18197  0.36946  0.36946  1
 Al  Al8  1  0.36946  0.18197  0.36946  1
 Al  Al9  1  0.81251  1.00000  0.63054  1
 Al  Al10  1  1.00000  0.81251  0.63054  1
 Al  Al11  1  0.63054  1.00000  0.81251  1
 Al  Al12  1  0.81803  0.18749  0.18749  1
 Mg  Mg1  1  0.00000  0.00000  0.35422  1
 Mg  Mg2  1  0.31858  0.60383  1.00000  1
 Mg  Mg3  1  0.60383  0.31858  -0.00000  1
 Mg  Mg4  1  0.00000  0.35422  0.00000  1
 Mg  Mg5  1  0.68142  0.68142  0.28525  1
 Mg  Mg6  1  1.00000  0.60383  0.31858  1
 Mg  Mg7  1  0.60383  1.00000  0.31858  1
 Mg  Mg8  1  0.68142  0.28525  0.68142  1
 Mg  Mg9  1  0.71475  0.39617  0.39617  1
 Mg  Mg10  1  0.39617  0.71475  0.39617  1
 Mg  Mg11  1  0.31858  1.00000  0.60383  1
 Mg  Mg12  1  -0.00000  0.31858  0.60383  1
 Mg  Mg13  1  0.64578  0.64578  0.64578  1
 Mg  Mg14  1  0.28525  0.68142  0.68142  1
 Mg  Mg15  1  0.39617  0.39617  0.71475  1
 Mg  Mg16  1  0.35422  0.00000  0.00000  1
 Yb  Yb1  1  0.00000  0.00000  0.00000  1
