CIF file written using JARVIS-Tools package.
data_Ca2SnS4
_symmetry_space_group_name_H-M  'P-62m'
_cell_length_a       11.7149
_cell_length_b       11.7149
_cell_length_c       3.93098
_cell_angle_alpha    90
_cell_angle_beta     90
_cell_angle_gamma    120

_symmetry_Int_Tables_number  189
_chemical_formula_structural  Ca2SnS4
_chemical_formula_sum  Ca6Sn3S2
_cell_volume  467.20554269365863
_cell_formula_units_Z  3
loop_
  _symmetry_equiv_pos_site_id
 _symmetry_equiv_pos_as_xyz
 1  'x, y, z'
loop_
 _atom_site_type_symbol
 _atom_site_label
 _atom_site_symmetry_multiplicity
 _atom_site_fract_x
 _atom_site_fract_y
 _atom_site_fract_z
 _atom_site_fract_occupancy
 Ca  Ca1  1  0.00000  0.00000  0.00000  1
 Ca  Ca2  1  0.33333  0.66667  0.50000  1
 Ca  Ca3  1  0.66667  0.33333  0.50000  1
 Ca  Ca4  1  0.70991  0.70991  0.50000  1
 Ca  Ca5  1  0.29009  0.00000  0.50000  1
 Ca  Ca6  1  0.00000  0.29009  0.50000  1
 S  S1  1  0.17275  0.17275  0.50000  1
 S  S2  1  0.24587  0.80106  0.00000  1
 S  S3  1  -0.00000  0.82725  0.50000  1
 S  S4  1  0.47740  0.47740  0.50000  1
 S  S5  1  0.82725  -0.00000  0.50000  1
 S  S6  1  0.00000  0.52260  0.50000  1
 S  S7  1  0.75413  0.55519  0.00000  1
 S  S8  1  0.80106  0.24587  0.00000  1
 S  S9  1  0.52260  0.00000  0.50000  1
 S  S10  1  0.19894  0.44481  0.00000  1
 S  S11  1  0.44481  0.19894  0.00000  1
 S  S12  1  0.55519  0.75413  0.00000  1
 Sn  Sn1  1  0.00000  0.65888  0.00000  1
 Sn  Sn2  1  0.65888  0.00000  0.00000  1
 Sn  Sn3  1  0.34112  0.34112  0.00000  1
