CIF file written using JARVIS-Tools package.
data_Y2Te5O13
_symmetry_space_group_name_H-M  'P-1'
_cell_length_a       6.97151
_cell_length_b       8.64902
_cell_length_c       10.5604
_cell_angle_alpha    89.2583
_cell_angle_beta     87.0593
_cell_angle_gamma    75.0858

_symmetry_Int_Tables_number  2
_chemical_formula_structural  Y2Te5O13
_chemical_formula_sum  Y4Te0O26
_cell_volume  614.4938222830614
_cell_formula_units_Z  2
loop_
  _symmetry_equiv_pos_site_id
 _symmetry_equiv_pos_as_xyz
 1  'x, y, z'
loop_
 _atom_site_type_symbol
 _atom_site_label
 _atom_site_symmetry_multiplicity
 _atom_site_fract_x
 _atom_site_fract_y
 _atom_site_fract_z
 _atom_site_fract_occupancy
 O  O1  1  0.05894  0.82069  0.03446  1
 O  O2  1  0.53850  0.81023  0.48684  1
 O  O3  1  0.53327  0.32516  0.00253  1
 O  O4  1  0.33836  0.51182  0.61471  1
 O  O5  1  0.46673  0.67484  0.99747  1
 O  O6  1  0.12150  0.48833  0.89233  1
 O  O7  1  0.33149  0.21948  0.77668  1
 O  O8  1  0.23818  0.49501  0.18660  1
 O  O9  1  0.66851  0.78052  0.22332  1
 O  O10  1  0.65549  0.00925  0.87536  1
 O  O11  1  0.76182  0.50499  0.81340  1
 O  O12  1  0.94015  0.98263  0.31523  1
 O  O13  1  0.32845  0.74303  0.77014  1
 O  O14  1  0.95562  0.65079  0.43760  1
 O  O15  1  0.04438  0.34921  0.56240  1
 O  O16  1  0.31304  0.73774  0.28952  1
 O  O17  1  0.46150  0.18977  0.51316  1
 O  O18  1  0.06649  0.26781  0.28198  1
 O  O19  1  0.94106  0.17931  0.96554  1
 O  O20  1  0.34451  0.99075  0.12464  1
 O  O21  1  0.05985  0.01737  0.68477  1
 O  O22  1  0.87850  0.51167  0.10767  1
 O  O23  1  0.93351  0.73219  0.71802  1
 O  O24  1  0.66164  0.48818  0.38529  1
 O  O25  1  0.68696  0.26226  0.71048  1
 O  O26  1  0.67155  0.25697  0.22986  1
 Te  Te1  1  0.72632  0.60679  0.52053  1
 Te  Te2  1  0.87498  0.65396  0.89283  1
 Te  Te3  1  0.56611  0.09118  0.69522  1
 Te  Te4  1  0.12502  0.34604  0.10717  1
 Te  Te5  1  0.43389  0.90882  0.30478  1
 Te  Te6  1  0.84342  0.19723  0.36709  1
 Te  Te7  1  0.29065  0.88272  0.97095  1
 Te  Te8  1  0.27368  0.39321  0.47947  1
 Te  Te9  1  0.15658  0.80277  0.63291  1
 Te  Te10  1  0.70935  0.11728  0.02905  1
 Y  Y1  1  0.44577  0.47086  0.82042  1
 Y  Y2  1  0.55423  0.52914  0.17958  1
 Y  Y3  1  0.00163  0.26361  0.76160  1
 Y  Y4  1  0.99837  0.73639  0.23840  1
