CIF file written using JARVIS-Tools package.
data_SiP2O7
_symmetry_space_group_name_H-M  'P2_1/c'
_cell_length_a       4.33832
_cell_length_b       7.19622
_cell_length_c       6.33872
_cell_angle_alpha    90
_cell_angle_beta     103.853
_cell_angle_gamma    90

_symmetry_Int_Tables_number  14
_chemical_formula_structural  SiP2O7
_chemical_formula_sum  Si2P4O4
_cell_volume  192.13571639651005
_cell_formula_units_Z  2
loop_
  _symmetry_equiv_pos_site_id
 _symmetry_equiv_pos_as_xyz
 1  'x, y, z'
loop_
 _atom_site_type_symbol
 _atom_site_label
 _atom_site_symmetry_multiplicity
 _atom_site_fract_x
 _atom_site_fract_y
 _atom_site_fract_z
 _atom_site_fract_occupancy
 O  O1  1  0.18826  0.14350  0.86086  1
 O  O2  1  0.64830  0.98917  0.76125  1
 O  O3  1  0.35170  0.48917  0.73875  1
 O  O4  1  0.35170  0.01083  0.23875  1
 O  O5  1  -0.00000  0.00000  0.50000  1
 O  O6  1  0.73595  0.29297  0.59048  1
 O  O7  1  0.64830  0.51083  0.26125  1
 O  O8  1  0.26405  0.70703  0.40952  1
 O  O9  1  0.73595  0.20703  0.09048  1
 O  O10  1  0.00000  0.50000  0.00000  1
 O  O11  1  0.81174  0.64350  0.63914  1
 O  O12  1  0.81174  0.85650  0.13914  1
 O  O13  1  0.18826  0.35650  0.36086  1
 O  O14  1  0.26405  0.79297  0.90952  1
 P  P1  1  0.88629  0.38832  0.18259  1
 P  P2  1  0.11371  0.88832  0.31741  1
 P  P3  1  0.11371  0.61168  0.81741  1
 P  P4  1  0.88629  0.11168  0.68259  1
 Si  Si1  1  0.50000  0.50000  0.50000  1
 Si  Si2  1  0.50000  0.00000  0.00000  1
