CIF file written using JARVIS-Tools package.
data_Zn2P3S9
_symmetry_space_group_name_H-M  'C2/m'
_cell_length_a       6.54366
_cell_length_b       10.5824
_cell_length_c       10.5824
_cell_angle_alpha    60.72
_cell_angle_beta     84.9532
_cell_angle_gamma    84.9532

_symmetry_Int_Tables_number  12
_chemical_formula_structural  Zn2P3S9
_chemical_formula_sum  Zn4P6S8
_cell_volume  635.8564827571204
_cell_formula_units_Z  2
loop_
  _symmetry_equiv_pos_site_id
 _symmetry_equiv_pos_as_xyz
 1  'x, y, z'
loop_
 _atom_site_type_symbol
 _atom_site_label
 _atom_site_symmetry_multiplicity
 _atom_site_fract_x
 _atom_site_fract_y
 _atom_site_fract_z
 _atom_site_fract_occupancy
 P  P1  1  0.28997  0.62386  0.62386  1
 P  P2  1  0.37546  0.28138  0.28138  1
 P  P3  1  0.62454  0.71862  0.71862  1
 P  P4  1  0.65184  0.02425  0.02425  1
 P  P5  1  0.34816  0.97575  0.97575  1
 P  P6  1  0.71003  0.37614  0.37614  1
 S  S1  1  0.84447  0.56675  0.26708  1
 S  S2  1  0.15307  0.07338  0.07338  1
 S  S3  1  0.61943  0.60218  0.60218  1
 S  S4  1  0.38057  0.39782  0.39782  1
 S  S5  1  0.67271  0.91881  0.24254  1
 S  S6  1  0.84693  0.92662  0.92662  1
 S  S7  1  0.32729  0.08119  0.75746  1
 S  S8  1  0.24422  0.09221  0.41577  1
 S  S9  1  0.75578  0.58423  0.90779  1
 S  S10  1  0.75578  0.90779  0.58423  1
 S  S11  1  0.67271  0.24254  0.91881  1
 S  S12  1  0.15553  0.43325  0.73292  1
 S  S13  1  0.15553  0.73292  0.43325  1
 S  S14  1  0.24422  0.41577  0.09221  1
 S  S15  1  0.32729  0.75746  0.08119  1
 S  S16  1  0.29419  0.74132  0.74132  1
 S  S17  1  0.70581  0.25868  0.25868  1
 S  S18  1  0.84447  0.26708  0.56675  1
 Zn  Zn1  1  0.67700  0.69945  0.04835  1
 Zn  Zn2  1  0.32300  0.30055  0.95165  1
 Zn  Zn3  1  0.67700  0.04835  0.69945  1
 Zn  Zn4  1  0.32300  0.95165  0.30055  1
