CIF file written using JARVIS-Tools package.
data_CuH3NCl
_symmetry_space_group_name_H-M  'I2_13'
_cell_length_a       7.24136
_cell_length_b       7.24136
_cell_length_c       7.24136
_cell_angle_alpha    109.471
_cell_angle_beta     109.471
_cell_angle_gamma    109.471

_symmetry_Int_Tables_number  199
_chemical_formula_structural  CuH3NCl
_chemical_formula_sum  Cu4H2N4Cl4
_cell_volume  292.3072860227574
_cell_formula_units_Z  4
loop_
  _symmetry_equiv_pos_site_id
 _symmetry_equiv_pos_as_xyz
 1  'x, y, z'
loop_
 _atom_site_type_symbol
 _atom_site_label
 _atom_site_symmetry_multiplicity
 _atom_site_fract_x
 _atom_site_fract_y
 _atom_site_fract_z
 _atom_site_fract_occupancy
 Cl  Cl1  1  0.46331  0.96331  0.96331  1
 Cl  Cl2  1  -0.00000  0.53669  -0.00000  1
 Cl  Cl3  1  0.50000  0.50000  0.53669  1
 Cl  Cl4  1  0.03669  -0.00000  0.50000  1
 Cu  Cu1  1  0.00000  0.24355  0.00000  1
 Cu  Cu2  1  0.50000  0.50000  0.24355  1
 Cu  Cu3  1  0.75645  0.25645  0.25645  1
 Cu  Cu4  1  0.74355  0.00000  0.50000  1
 H  H1  1  0.64625  0.51135  0.98082  1
 H  H2  1  0.46947  0.98865  0.63490  1
 H  H3  1  0.13490  0.96947  0.98865  1
 H  H4  1  0.33457  0.86510  0.35375  1
 H  H5  1  0.01135  0.98082  0.14625  1
 H  H6  1  0.16543  0.51918  0.53053  1
 H  H7  1  0.36510  0.35375  0.83457  1
 H  H8  1  0.01918  0.53053  0.66543  1
 H  H9  1  0.85375  0.83457  0.86510  1
 H  H10  1  0.48865  0.63490  0.96947  1
 H  H11  1  0.48082  0.14625  0.51135  1
 H  H12  1  0.03053  0.66543  0.51918  1
 N  N1  1  0.50000  0.50000  0.98036  1
 N  N2  1  0.00000  0.98036  0.00000  1
 N  N3  1  0.48036  -0.00000  0.50000  1
 N  N4  1  0.01964  0.51964  0.51964  1
