CIF file written using JARVIS-Tools package.
data_RbSnCl3
_symmetry_space_group_name_H-M  'P1'
_cell_length_a       5.54108
_cell_length_b       5.54111
_cell_length_c       5.56364
_cell_angle_alpha    90.0895
_cell_angle_beta     90.0564
_cell_angle_gamma    90.0022

_symmetry_Int_Tables_number  1
_chemical_formula_structural  RbSnCl3
_chemical_formula_sum  RbSnCl3
_cell_volume  170.8239681176413
_cell_formula_units_Z  1
loop_
  _symmetry_equiv_pos_site_id
 _symmetry_equiv_pos_as_xyz
 1  'x, y, z'
loop_
 _atom_site_type_symbol
 _atom_site_label
 _atom_site_symmetry_multiplicity
 _atom_site_fract_x
 _atom_site_fract_y
 _atom_site_fract_z
 _atom_site_fract_occupancy
 Cl  Cl1  1  0.50562  0.51360  0.98716  1
 Cl  Cl2  1  0.50664  0.01041  0.45922  1
 Cl  Cl3  1  0.00614  0.50979  0.45872  1
 Rb  Rb1  1  0.00554  0.00593  0.04133  1
 Sn  Sn1  1  0.50606  0.51027  0.48358  1
