CIF file written using JARVIS-Tools package.
data_RbCuBr3
_symmetry_space_group_name_H-M  'Pm-3m'
_cell_length_a       5.15039
_cell_length_b       5.15145
_cell_length_c       5.15146
_cell_angle_alpha    89.9934
_cell_angle_beta     89.9993
_cell_angle_gamma    89.9979

_symmetry_Int_Tables_number  221
_chemical_formula_structural  RbCuBr3
_chemical_formula_sum  RbCuBr3
_cell_volume  136.67864125469163
_cell_formula_units_Z  1
loop_
  _symmetry_equiv_pos_site_id
 _symmetry_equiv_pos_as_xyz
 1  'x, y, z'
loop_
 _atom_site_type_symbol
 _atom_site_label
 _atom_site_symmetry_multiplicity
 _atom_site_fract_x
 _atom_site_fract_y
 _atom_site_fract_z
 _atom_site_fract_occupancy
 Br  Br1  1  0.50600  0.48999  0.01400  1
 Br  Br2  1  0.50600  0.99000  0.51400  1
 Br  Br3  1  0.00601  0.49000  0.51400  1
 Cu  Cu1  1  0.50601  0.49001  0.51401  1
 Rb  Rb1  1  0.00598  0.99000  0.01399  1
