CIF file written using JARVIS-Tools package.
data_TeW2SeS2
_symmetry_space_group_name_H-M  'P3m1'
_cell_length_a       3.3118
_cell_length_b       3.3118
_cell_length_c       34.7869
_cell_angle_alpha    90.0013
_cell_angle_beta     90
_cell_angle_gamma    120

_symmetry_Int_Tables_number  156
_chemical_formula_structural  TeW2SeS2
_chemical_formula_sum  Te2W4Se2S4
_cell_volume  330.42524879598705
_cell_formula_units_Z  2
loop_
  _symmetry_equiv_pos_site_id
 _symmetry_equiv_pos_as_xyz
 1  'x, y, z'
loop_
 _atom_site_type_symbol
 _atom_site_label
 _atom_site_symmetry_multiplicity
 _atom_site_fract_x
 _atom_site_fract_y
 _atom_site_fract_z
 _atom_site_fract_occupancy
 S  S1  1  0.33336  0.66673  0.32546  1
 S  S2  1  0.66664  0.33328  0.05314  1
 S  S3  1  0.66667  0.33333  0.14157  1
 S  S4  1  0.33333  0.66667  0.23706  1
 Se  Se1  1  0.66664  0.33328  0.41517  1
 Se  Se2  1  0.66667  0.33334  0.51214  1
 Te  Te1  1  0.33333  0.66666  0.71596  1
 Te  Te2  1  0.33335  0.66671  0.60531  1
 W  W1  1  0.33332  0.66664  0.09733  1
 W  W2  1  0.33332  0.66665  0.46365  1
 W  W3  1  0.66668  0.33336  0.28128  1
 W  W4  1  0.66667  0.33335  0.66067  1
