CIF file written using JARVIS-Tools package.
data_Li6VO3F3
_symmetry_space_group_name_H-M  'P1'
_cell_length_a       5.15833
_cell_length_b       6.49117
_cell_length_c       7.7559
_cell_angle_alpha    89.6901
_cell_angle_beta     92.5359
_cell_angle_gamma    106.096

_symmetry_Int_Tables_number  1
_chemical_formula_structural  Li6VO3F3
_chemical_formula_sum  Li2V2O6F6
_cell_volume  249.26423581141196
_cell_formula_units_Z  2
loop_
  _symmetry_equiv_pos_site_id
 _symmetry_equiv_pos_as_xyz
 1  'x, y, z'
loop_
 _atom_site_type_symbol
 _atom_site_label
 _atom_site_symmetry_multiplicity
 _atom_site_fract_x
 _atom_site_fract_y
 _atom_site_fract_z
 _atom_site_fract_occupancy
 F  F1  1  0.07156  0.20469  0.56070  1
 F  F2  1  0.33050  0.57496  0.35199  1
 F  F3  1  0.35289  0.08191  0.85815  1
 F  F4  1  0.23244  0.11528  0.23335  1
 F  F5  1  0.88235  0.78818  0.44943  1
 F  F6  1  0.76235  0.88104  0.77860  1
 Li  Li1  1  0.09312  0.91245  0.65511  1
 Li  Li2  1  0.32647  0.83320  0.23180  1
 Li  Li3  1  0.28033  0.35068  0.76351  1
 Li  Li4  1  0.88559  0.08234  0.34218  1
 Li  Li5  1  0.61265  0.19690  0.09992  1
 Li  Li6  1  0.55454  0.67768  0.60036  1
 Li  Li7  1  0.44431  0.32207  0.41047  1
 Li  Li8  1  0.39705  0.80203  0.90889  1
 Li  Li9  1  0.07647  0.45182  0.14228  1
 Li  Li10  1  0.71049  0.17246  0.75791  1
 Li  Li11  1  0.76074  0.66334  0.21976  1
 Li  Li12  1  0.93321  0.54690  0.85328  1
 O  O1  1  0.78322  0.36757  0.29484  1
 O  O2  1  0.96886  0.27735  0.94159  1
 O  O3  1  0.64977  0.41509  0.64333  1
 O  O4  1  0.66372  0.91849  0.13625  1
 O  O5  1  0.06938  0.72650  0.05164  1
 O  O6  1  0.21544  0.64974  0.69194  1
 V  V1  1  0.96249  0.49333  0.51167  1
 V  V2  1  0.98004  0.99402  0.01107  1
