CIF file written using JARVIS-Tools package.
data_Ti3O2
_symmetry_space_group_name_H-M  'Immm'
_cell_length_a       5.19837
_cell_length_b       5.15898
_cell_length_c       5.15969
_cell_angle_alpha    111.556
_cell_angle_beta     79.4934
_cell_angle_gamma    119.748

_symmetry_Int_Tables_number  71
_chemical_formula_structural  Ti3O2
_chemical_formula_sum  Ti6O4
_cell_volume  111.73592832185537
_cell_formula_units_Z  2
loop_
  _symmetry_equiv_pos_site_id
 _symmetry_equiv_pos_as_xyz
 1  'x, y, z'
loop_
 _atom_site_type_symbol
 _atom_site_label
 _atom_site_symmetry_multiplicity
 _atom_site_fract_x
 _atom_site_fract_y
 _atom_site_fract_z
 _atom_site_fract_occupancy
 O  O1  1  0.33785  0.66891  -0.00002  1
 O  O2  1  0.66219  0.83107  0.50000  1
 O  O3  1  0.33781  0.16893  0.50000  1
 O  O4  1  0.66215  0.33109  0.00002  1
 Ti  Ti1  1  0.31212  0.40608  0.25001  1
 Ti  Ti2  1  0.00001  0.75000  0.24999  1
 Ti  Ti3  1  0.68784  0.09392  0.25002  1
 Ti  Ti4  1  0.31216  -0.09392  0.74998  1
 Ti  Ti5  1  -0.00001  0.25000  0.75001  1
 Ti  Ti6  1  0.68788  0.59392  0.74999  1
