CIF file written using JARVIS-Tools package.
data_TlNiO3
_symmetry_space_group_name_H-M  'R3c'
_cell_length_a       5.36495
_cell_length_b       5.36496
_cell_length_c       5.36495
_cell_angle_alpha    60.141
_cell_angle_beta     60.141
_cell_angle_gamma    60.141

_symmetry_Int_Tables_number  161
_chemical_formula_structural  TlNiO3
_chemical_formula_sum  Tl2Ni2O6
_cell_volume  109.5386943230468
_cell_formula_units_Z  2
loop_
  _symmetry_equiv_pos_site_id
 _symmetry_equiv_pos_as_xyz
 1  'x, y, z'
loop_
 _atom_site_type_symbol
 _atom_site_label
 _atom_site_symmetry_multiplicity
 _atom_site_fract_x
 _atom_site_fract_y
 _atom_site_fract_z
 _atom_site_fract_occupancy
 Ni  Ni1  1  0.00735  0.00735  0.00735  1
 Ni  Ni2  1  0.50735  0.50735  0.50735  1
 O  O1  1  0.24269  0.84701  0.66378  1
 O  O2  1  0.84701  0.66378  0.24269  1
 O  O3  1  0.66378  0.24269  0.84701  1
 O  O4  1  0.16378  0.34701  0.74269  1
 O  O5  1  0.74269  0.16378  0.34701  1
 O  O6  1  0.34701  0.74269  0.16378  1
 Tl  Tl1  1  0.26768  0.26768  0.26768  1
 Tl  Tl2  1  0.76768  0.76768  0.76768  1
