CIF file written using JARVIS-Tools package.
data_LiSnCl3
_symmetry_space_group_name_H-M  'R3c'
_cell_length_a       6.90176
_cell_length_b       6.90177
_cell_length_c       7.08335
_cell_angle_alpha    60.8445
_cell_angle_beta     60.8445
_cell_angle_gamma    60

_symmetry_Int_Tables_number  161
_chemical_formula_structural  LiSnCl3
_chemical_formula_sum  Li2Sn2Cl6
_cell_volume  241.58542563163846
_cell_formula_units_Z  2
loop_
  _symmetry_equiv_pos_site_id
 _symmetry_equiv_pos_as_xyz
 1  'x, y, z'
loop_
 _atom_site_type_symbol
 _atom_site_label
 _atom_site_symmetry_multiplicity
 _atom_site_fract_x
 _atom_site_fract_y
 _atom_site_fract_z
 _atom_site_fract_occupancy
 Cl  Cl1  1  0.58157  0.97658  0.28728  1
 Cl  Cl2  1  0.15457  0.58157  0.28728  1
 Cl  Cl3  1  0.97658  0.15457  0.28728  1
 Cl  Cl4  1  0.65457  0.47658  0.78728  1
 Cl  Cl5  1  0.47658  0.08157  0.78728  1
 Cl  Cl6  1  0.08157  0.65457  0.78728  1
 Li  Li1  1  0.30680  0.30680  0.07961  1
 Li  Li2  1  0.80680  0.80680  0.57961  1
 Sn  Sn1  1  0.00898  0.00898  0.97306  1
 Sn  Sn2  1  0.50898  0.50898  0.47306  1
