CIF file written using JARVIS-Tools package.
data_RbSnF3
_symmetry_space_group_name_H-M  'P1'
_cell_length_a       4.53429
_cell_length_b       4.49994
_cell_length_c       5.20238
_cell_angle_alpha    101.027
_cell_angle_beta     90.6758
_cell_angle_gamma    89.7678

_symmetry_Int_Tables_number  1
_chemical_formula_structural  RbSnF3
_chemical_formula_sum  RbSnF3
_cell_volume  104.18254725782911
_cell_formula_units_Z  1
loop_
  _symmetry_equiv_pos_site_id
 _symmetry_equiv_pos_as_xyz
 1  'x, y, z'
loop_
 _atom_site_type_symbol
 _atom_site_label
 _atom_site_symmetry_multiplicity
 _atom_site_fract_x
 _atom_site_fract_y
 _atom_site_fract_z
 _atom_site_fract_occupancy
 F  F1  1  -0.00040  0.46412  0.56492  1
 F  F2  1  0.50527  0.55698  0.89069  1
 F  F3  1  0.49639  0.97233  0.57489  1
 Rb  Rb1  1  0.00040  0.03530  0.93068  1
 Sn  Sn1  1  0.49833  0.46127  0.47883  1
