CIF file written using JARVIS-Tools package.
data_Te7Mo6S5
_symmetry_space_group_name_H-M  'Cm'
_cell_length_a       3.41155
_cell_length_b       13.9385
_cell_length_c       8.90629
_cell_angle_alpha    90.4992
_cell_angle_beta     101.044
_cell_angle_gamma    90.0011

_symmetry_Int_Tables_number  8
_chemical_formula_structural  Te7Mo6S5
_chemical_formula_sum  Te7Mo6S5
_cell_volume  415.65233075845583
_cell_formula_units_Z  1
loop_
  _symmetry_equiv_pos_site_id
 _symmetry_equiv_pos_as_xyz
 1  'x, y, z'
loop_
 _atom_site_type_symbol
 _atom_site_label
 _atom_site_symmetry_multiplicity
 _atom_site_fract_x
 _atom_site_fract_y
 _atom_site_fract_z
 _atom_site_fract_occupancy
 Mo  Mo1  1  0.86981  0.24749  0.73956  1
 Mo  Mo2  1  0.53597  0.23817  0.07190  1
 Mo  Mo3  1  0.80065  0.76107  0.60133  1
 Mo  Mo4  1  0.20295  0.23749  0.40589  1
 Mo  Mo5  1  0.12650  0.74964  0.25305  1
 Mo  Mo6  1  0.46403  0.75559  0.92812  1
 S  S1  1  0.42077  0.14089  0.84147  1
 S  S2  1  0.90747  0.65333  0.81501  1
 S  S3  1  0.09278  0.34059  0.18548  1
 S  S4  1  0.76178  0.13645  0.52354  1
 S  S5  1  0.57615  0.85490  0.15235  1
 Te  Te1  1  0.43098  0.38351  0.86186  1
 Te  Te2  1  0.56919  0.61119  0.13847  1
 Te  Te3  1  0.08977  0.09826  0.17951  1
 Te  Te4  1  0.75403  0.37754  0.50800  1
 Te  Te5  1  0.23693  0.89106  0.47389  1
 Te  Te6  1  0.24552  0.62555  0.49112  1
 Te  Te7  1  0.91471  0.89729  0.82945  1
