CIF file written using JARVIS-Tools package.
data_PbAuO2
_symmetry_space_group_name_H-M  'P2/m'
_cell_length_a       6.49714
_cell_length_b       3.69231
_cell_length_c       6.60511
_cell_angle_alpha    90
_cell_angle_beta     110.037
_cell_angle_gamma    90

_symmetry_Int_Tables_number  10
_chemical_formula_structural  PbAuO2
_chemical_formula_sum  Pb2Au2O4
_cell_volume  148.86219165052586
_cell_formula_units_Z  2
loop_
  _symmetry_equiv_pos_site_id
 _symmetry_equiv_pos_as_xyz
 1  'x, y, z'
loop_
 _atom_site_type_symbol
 _atom_site_label
 _atom_site_symmetry_multiplicity
 _atom_site_fract_x
 _atom_site_fract_y
 _atom_site_fract_z
 _atom_site_fract_occupancy
 Au  Au1  1  0.50000  0.00000  0.00000  1
 Au  Au2  1  0.00000  0.50000  0.00000  1
 O  O1  1  0.12366  0.50000  0.31976  1
 O  O2  1  0.40956  0.00000  0.67891  1
 O  O3  1  0.87634  0.50000  0.68024  1
 O  O4  1  0.59044  0.00000  0.32109  1
 Pb  Pb1  1  0.00000  0.00000  0.50000  1
 Pb  Pb2  1  0.50000  0.50000  0.50000  1
