CIF file written using JARVIS-Tools package.
data_HoB4Ru
_symmetry_space_group_name_H-M  'Pbam'
_cell_length_a       3.5671
_cell_length_b       5.93857
_cell_length_c       11.4855
_cell_angle_alpha    90
_cell_angle_beta     90
_cell_angle_gamma    90

_symmetry_Int_Tables_number  55
_chemical_formula_structural  HoB4Ru
_chemical_formula_sum  Ho4B6Ru4
_cell_volume  243.30401939634652
_cell_formula_units_Z  4
loop_
  _symmetry_equiv_pos_site_id
 _symmetry_equiv_pos_as_xyz
 1  'x, y, z'
loop_
 _atom_site_type_symbol
 _atom_site_label
 _atom_site_symmetry_multiplicity
 _atom_site_fract_x
 _atom_site_fract_y
 _atom_site_fract_z
 _atom_site_fract_occupancy
 B  B1  1  0.50000  0.36417  0.46995  1
 B  B2  1  0.50000  0.47527  0.19186  1
 B  B3  1  0.50000  0.52473  0.80814  1
 B  B4  1  0.50000  0.97527  0.30814  1
 B  B5  1  0.50000  0.11221  0.54677  1
 B  B6  1  0.50000  0.88779  0.45323  1
 B  B7  1  0.50000  0.61221  0.95323  1
 B  B8  1  0.50000  0.38779  0.04677  1
 B  B9  1  0.50000  0.13583  0.96995  1
 B  B10  1  0.50000  0.86417  0.03005  1
 B  B11  1  0.50000  0.63583  0.53005  1
 B  B12  1  0.50000  0.02473  0.69186  1
 B  B13  1  0.50000  0.21052  0.81431  1
 B  B14  1  0.50000  0.78948  0.18569  1
 B  B15  1  0.50000  0.71052  0.68569  1
 B  B16  1  0.50000  0.28948  0.31431  1
 Ho  Ho1  1  0.00000  0.12851  0.14993  1
 Ho  Ho2  1  0.00000  0.37149  0.64993  1
 Ho  Ho3  1  0.00000  0.62851  0.35007  1
 Ho  Ho4  1  0.00000  0.87149  0.85007  1
 Ru  Ru1  1  0.00000  0.14069  0.40697  1
 Ru  Ru2  1  0.00000  0.85931  0.59303  1
 Ru  Ru3  1  0.00000  0.64069  0.09303  1
 Ru  Ru4  1  0.00000  0.35931  0.90697  1
