CIF file written using JARVIS-Tools package.
data_Zn2SiO4
_symmetry_space_group_name_H-M  'Pbca'
_cell_length_a       4.97701
_cell_length_b       5.06345
_cell_length_c       10.4439
_cell_angle_alpha    90
_cell_angle_beta     90
_cell_angle_gamma    90

_symmetry_Int_Tables_number  61
_chemical_formula_structural  Zn2SiO4
_chemical_formula_sum  Zn8Si4O6
_cell_volume  263.19496655948564
_cell_formula_units_Z  4
loop_
  _symmetry_equiv_pos_site_id
 _symmetry_equiv_pos_as_xyz
 1  'x, y, z'
loop_
 _atom_site_type_symbol
 _atom_site_label
 _atom_site_symmetry_multiplicity
 _atom_site_fract_x
 _atom_site_fract_y
 _atom_site_fract_z
 _atom_site_fract_occupancy
 O  O1  1  0.61163  0.04654  0.65916  1
 O  O2  1  0.69737  0.29155  0.45252  1
 O  O3  1  0.38837  0.54654  0.84084  1
 O  O4  1  0.30263  0.79155  0.04748  1
 O  O5  1  0.80263  0.70845  0.95252  1
 O  O6  1  0.30263  0.70845  0.54748  1
 O  O7  1  0.80263  0.79155  0.45252  1
 O  O8  1  0.19737  0.20845  0.54748  1
 O  O9  1  0.19737  0.29155  0.04748  1
 O  O10  1  0.38837  0.95346  0.34084  1
 O  O11  1  0.88837  0.54654  0.65916  1
 O  O12  1  0.61163  0.45346  0.15916  1
 O  O13  1  0.11163  0.04654  0.84084  1
 O  O14  1  0.88837  0.95346  0.15916  1
 O  O15  1  0.11163  0.45346  0.34084  1
 O  O16  1  0.69737  0.20845  0.95252  1
 Si  Si1  1  0.50000  0.00000  0.50000  1
 Si  Si2  1  0.00000  0.50000  0.50000  1
 Si  Si3  1  0.50000  0.50000  0.00000  1
 Si  Si4  1  0.00000  0.00000  0.00000  1
 Zn  Zn1  1  0.99904  0.05156  0.33620  1
 Zn  Zn2  1  0.49904  0.44844  0.66380  1
 Zn  Zn3  1  0.00096  0.55156  0.16380  1
 Zn  Zn4  1  0.50096  0.94844  0.83620  1
 Zn  Zn5  1  0.00096  0.94844  0.66380  1
 Zn  Zn6  1  0.50096  0.55156  0.33620  1
 Zn  Zn7  1  0.99904  0.44844  0.83620  1
 Zn  Zn8  1  0.49904  0.05156  0.16380  1
