CIF file written using JARVIS-Tools package.
data_CdSb2Se3Br2
_symmetry_space_group_name_H-M  'C2/m'
_cell_length_a       4.08854
_cell_length_b       10.7862
_cell_length_c       11.7929
_cell_angle_alpha    65.5342
_cell_angle_beta     80.0176
_cell_angle_gamma    79.0748

_symmetry_Int_Tables_number  12
_chemical_formula_structural  CdSb2Se3Br2
_chemical_formula_sum  Cd2Sb4Se6Br4
_cell_volume  462.16229305836725
_cell_formula_units_Z  2
loop_
  _symmetry_equiv_pos_site_id
 _symmetry_equiv_pos_as_xyz
 1  'x, y, z'
loop_
 _atom_site_type_symbol
 _atom_site_label
 _atom_site_symmetry_multiplicity
 _atom_site_fract_x
 _atom_site_fract_y
 _atom_site_fract_z
 _atom_site_fract_occupancy
 Br  Br1  1  0.10199  0.34210  0.45392  1
 Br  Br2  1  0.89801  0.65790  0.54608  1
 Br  Br3  1  0.21350  0.92342  0.64959  1
 Br  Br4  1  0.78650  0.07658  0.35041  1
 Cd  Cd1  1  0.35068  0.84644  0.45220  1
 Cd  Cd2  1  0.64932  0.15356  0.54780  1
 Sb  Sb1  1  0.04640  0.68808  0.21912  1
 Sb  Sb2  1  0.95360  0.31192  0.78088  1
 Sb  Sb3  1  0.70492  0.68367  0.90649  1
 Sb  Sb4  1  0.29508  0.31633  0.09351  1
 Se  Se1  1  0.46065  0.86411  0.21458  1
 Se  Se2  1  0.90027  0.17203  0.02742  1
 Se  Se3  1  0.53935  0.13589  0.78542  1
 Se  Se4  1  0.67820  0.50341  0.14019  1
 Se  Se5  1  0.09973  0.82797  0.97258  1
 Se  Se6  1  0.32180  0.49659  0.85981  1
