CIF file written using JARVIS-Tools package.
data_Nb3IrSe8
_symmetry_space_group_name_H-M  'Cc'
_cell_length_a       6.99242
_cell_length_b       7.01202
_cell_length_c       13.1077
_cell_angle_alpha    96.872
_cell_angle_beta     74.5262
_cell_angle_gamma    119.907

_symmetry_Int_Tables_number  9
_chemical_formula_structural  Nb3IrSe8
_chemical_formula_sum  Nb6Ir2Se6
_cell_volume  536.8385548622472
_cell_formula_units_Z  2
loop_
  _symmetry_equiv_pos_site_id
 _symmetry_equiv_pos_as_xyz
 1  'x, y, z'
loop_
 _atom_site_type_symbol
 _atom_site_label
 _atom_site_symmetry_multiplicity
 _atom_site_fract_x
 _atom_site_fract_y
 _atom_site_fract_z
 _atom_site_fract_occupancy
 Ir  Ir1  1  0.25274  0.45288  0.50080  1
 Ir  Ir2  1  0.44970  0.95279  0.00087  1
 Nb  Nb1  1  0.01833  0.52358  0.99940  1
 Nb  Nb2  1  0.25637  0.02366  0.49933  1
 Nb  Nb3  1  0.02968  0.99761  0.00277  1
 Nb  Nb4  1  0.49814  0.53486  0.99822  1
 Nb  Nb5  1  0.78902  0.03495  0.49814  1
 Nb  Nb6  1  0.71567  0.49769  0.50269  1
 Se  Se1  1  0.07672  0.81424  0.14566  1
 Se  Se2  1  0.15075  0.65267  0.39063  1
 Se  Se3  1  0.10968  0.34055  0.13110  1
 Se  Se4  1  0.91103  0.68625  0.86742  1
 Se  Se5  1  0.35475  0.80500  0.60948  1
 Se  Se6  1  0.16251  0.16272  0.35622  1
 Se  Se7  1  0.60199  0.84641  0.12909  1
 Se  Se8  1  0.65835  0.18635  0.36735  1
 Se  Se9  1  0.39440  0.66264  0.85628  1
 Se  Se10  1  0.63963  0.67549  0.37176  1
 Se  Se11  1  0.59111  0.30491  0.10954  1
 Se  Se12  1  0.41448  0.17539  0.87183  1
 Se  Se13  1  0.85025  0.84065  0.63103  1
 Se  Se14  1  0.86582  0.34651  0.62901  1
 Se  Se15  1  0.34234  0.31434  0.64559  1
 Se  Se16  1  0.86167  0.15258  0.89070  1
