CIF file written using JARVIS-Tools package.
data_CoH12Br2O6
_symmetry_space_group_name_H-M  'C2/m'
_cell_length_a       6.51138
_cell_length_b       6.51138
_cell_length_c       6.71954
_cell_angle_alpha    118.457
_cell_angle_beta     95.1208
_cell_angle_gamma    114.593

_symmetry_Int_Tables_number  12
_chemical_formula_structural  CoH12Br2O6
_chemical_formula_sum  CoH2Br2O6
_cell_volume  212.50922253366306
_cell_formula_units_Z  1
loop_
  _symmetry_equiv_pos_site_id
 _symmetry_equiv_pos_as_xyz
 1  'x, y, z'
loop_
 _atom_site_type_symbol
 _atom_site_label
 _atom_site_symmetry_multiplicity
 _atom_site_fract_x
 _atom_site_fract_y
 _atom_site_fract_z
 _atom_site_fract_occupancy
 Br  Br1  1  0.28605  0.89433  0.18039  1
 Br  Br2  1  0.71395  0.10567  0.81961  1
 Co  Co1  1  0.00000  0.00000  0.00000  1
 H  H1  1  0.81215  0.64308  0.45524  1
 H  H2  1  0.41979  0.47618  0.27898  1
 H  H3  1  0.18785  0.35692  0.54476  1
 H  H4  1  0.58021  0.52382  0.72102  1
 H  H5  1  0.19720  0.14081  0.72102  1
 H  H6  1  0.21838  0.54491  0.23491  1
 H  H7  1  0.31001  0.98347  0.76509  1
 H  H8  1  0.78162  0.45509  0.76509  1
 H  H9  1  0.68999  0.01653  0.23491  1
 H  H10  1  0.27297  0.56004  0.83301  1
 H  H11  1  0.72703  0.43996  0.16699  1
 H  H12  1  0.80280  0.85919  0.27898  1
 O  O1  1  0.16091  -0.00917  0.74648  1
 O  O2  1  0.71219  0.58665  0.29884  1
 O  O3  1  0.28781  0.41335  0.70116  1
 O  O4  1  0.83909  0.00917  0.25352  1
 O  O5  1  0.75566  0.58558  0.74648  1
 O  O6  1  0.24434  0.41442  0.25352  1
