CIF file written using JARVIS-Tools package.
data_PbI2
_symmetry_space_group_name_H-M  'P6_3mc'
_cell_length_a       4.58593
_cell_length_b       4.58594
_cell_length_c       28.1764
_cell_angle_alpha    90
_cell_angle_beta     90
_cell_angle_gamma    120

_symmetry_Int_Tables_number  186
_chemical_formula_structural  PbI2
_chemical_formula_sum  Pb4I8
_cell_volume  513.1831915520452
_cell_formula_units_Z  4
loop_
  _symmetry_equiv_pos_site_id
 _symmetry_equiv_pos_as_xyz
 1  'x, y, z'
loop_
 _atom_site_type_symbol
 _atom_site_label
 _atom_site_symmetry_multiplicity
 _atom_site_fract_x
 _atom_site_fract_y
 _atom_site_fract_z
 _atom_site_fract_occupancy
 I  I1  1  0.33333  0.66667  0.18292  1
 I  I2  1  0.00000  0.00000  0.81747  1
 I  I3  1  0.00000  0.00000  0.06709  1
 I  I4  1  0.66667  0.33333  0.93253  1
 I  I5  1  0.66667  0.33333  0.68292  1
 I  I6  1  0.00000  0.00000  0.31747  1
 I  I7  1  0.33333  0.66667  0.43253  1
 I  I8  1  0.00000  0.00000  0.56709  1
 Pb  Pb1  1  0.33333  0.66667  0.75018  1
 Pb  Pb2  1  0.33333  0.66667  -0.00018  1
 Pb  Pb3  1  0.66667  0.33333  0.25018  1
 Pb  Pb4  1  0.66667  0.33333  0.49982  1
