CIF file written using JARVIS-Tools package.
data_B2S3
_symmetry_space_group_name_H-M  'R-3c'
_cell_length_a       5.44954
_cell_length_b       5.44954
_cell_length_c       7.64867
_cell_angle_alpha    110.87
_cell_angle_beta     69.1305
_cell_angle_gamma    120

_symmetry_Int_Tables_number  167
_chemical_formula_structural  B2S3
_chemical_formula_sum  B4S6
_cell_volume  179.30042086518367
_cell_formula_units_Z  2
loop_
  _symmetry_equiv_pos_site_id
 _symmetry_equiv_pos_as_xyz
 1  'x, y, z'
loop_
 _atom_site_type_symbol
 _atom_site_label
 _atom_site_symmetry_multiplicity
 _atom_site_fract_x
 _atom_site_fract_y
 _atom_site_fract_z
 _atom_site_fract_occupancy
 B  B1  1  0.58381  0.41618  0.24855  1
 B  B2  1  0.91618  0.08381  0.25145  1
 B  B3  1  0.08381  0.91619  0.74855  1
 B  B4  1  0.41618  0.58381  0.75145  1
 S  S1  1  0.91891  0.41891  0.25000  1
 S  S2  1  0.25000  0.08109  0.25000  1
 S  S3  1  0.58109  0.75000  0.25000  1
 S  S4  1  0.41891  0.25000  0.75000  1
 S  S5  1  0.75000  0.91891  0.75000  1
 S  S6  1  0.08109  0.58109  0.75000  1
