CIF file written using JARVIS-Tools package.
data_Na3PS4
_symmetry_space_group_name_H-M  'I-43m'
_cell_length_a       6.02716
_cell_length_b       6.02716
_cell_length_c       6.02716
_cell_angle_alpha    109.471
_cell_angle_beta     109.471
_cell_angle_gamma    109.471

_symmetry_Int_Tables_number  217
_chemical_formula_structural  Na3PS4
_chemical_formula_sum  Na3PS4
_cell_volume  168.54429392069667
_cell_formula_units_Z  1
loop_
  _symmetry_equiv_pos_site_id
 _symmetry_equiv_pos_as_xyz
 1  'x, y, z'
loop_
 _atom_site_type_symbol
 _atom_site_label
 _atom_site_symmetry_multiplicity
 _atom_site_fract_x
 _atom_site_fract_y
 _atom_site_fract_z
 _atom_site_fract_occupancy
 Na  Na1  1  0.00000  0.50000  0.50000  1
 Na  Na2  1  0.50000  0.50000  0.00000  1
 Na  Na3  1  0.50000  0.00000  0.50000  1
 P  P1  1  0.00000  0.00000  0.00000  1
 S  S1  1  0.34456  0.00000  0.00000  1
 S  S2  1  0.65544  0.65544  0.65544  1
 S  S3  1  -0.00000  -0.00000  0.34456  1
 S  S4  1  0.00000  0.34456  -0.00000  1
