CIF file written using JARVIS-Tools package.
data_RbAgO2
_symmetry_space_group_name_H-M  'C2/c'
_cell_length_a       5.7155
_cell_length_b       5.71549
_cell_length_c       5.84644
_cell_angle_alpha    100.598
_cell_angle_beta     100.598
_cell_angle_gamma    105.454

_symmetry_Int_Tables_number  15
_chemical_formula_structural  RbAgO2
_chemical_formula_sum  Rb2Ag2O4
_cell_volume  175.38631965995717
_cell_formula_units_Z  2
loop_
  _symmetry_equiv_pos_site_id
 _symmetry_equiv_pos_as_xyz
 1  'x, y, z'
loop_
 _atom_site_type_symbol
 _atom_site_label
 _atom_site_symmetry_multiplicity
 _atom_site_fract_x
 _atom_site_fract_y
 _atom_site_fract_z
 _atom_site_fract_occupancy
 Ag  Ag1  1  0.00000  0.00000  0.00000  1
 Ag  Ag2  1  -0.00000  -0.00000  0.50000  1
 O  O1  1  0.15068  0.24972  0.32204  1
 O  O2  1  0.24972  0.15068  0.82204  1
 O  O3  1  0.84932  0.75028  0.67796  1
 O  O4  1  0.75028  0.84932  0.17796  1
 Rb  Rb1  1  0.64631  0.35369  0.25000  1
 Rb  Rb2  1  0.35369  0.64631  0.75000  1
