CIF file written using JARVIS-Tools package.
data_BaWN3
_symmetry_space_group_name_H-M  'P2_1/c'
_cell_length_a       7.62844
_cell_length_b       5.77923
_cell_length_c       10.1771
_cell_angle_alpha    90
_cell_angle_beta     130.804
_cell_angle_gamma    90

_symmetry_Int_Tables_number  14
_chemical_formula_structural  BaWN3
_chemical_formula_sum  Ba4W4N2
_cell_volume  339.62349986382844
_cell_formula_units_Z  4
loop_
  _symmetry_equiv_pos_site_id
 _symmetry_equiv_pos_as_xyz
 1  'x, y, z'
loop_
 _atom_site_type_symbol
 _atom_site_label
 _atom_site_symmetry_multiplicity
 _atom_site_fract_x
 _atom_site_fract_y
 _atom_site_fract_z
 _atom_site_fract_occupancy
 Ba  Ba1  1  0.29108  0.73665  0.63253  1
 Ba  Ba2  1  0.70892  0.26335  0.36747  1
 Ba  Ba3  1  0.70892  0.23665  0.86747  1
 Ba  Ba4  1  0.29108  0.76335  0.13253  1
 N  N1  1  0.12710  0.56403  0.29606  1
 N  N2  1  0.20468  0.25158  0.55801  1
 N  N3  1  0.42002  0.06546  0.42945  1
 N  N4  1  0.42002  0.43454  0.92945  1
 N  N5  1  0.87290  0.43597  0.70394  1
 N  N6  1  0.79532  0.75158  0.94199  1
 N  N7  1  0.57998  0.56546  0.07055  1
 N  N8  1  0.79532  0.74842  0.44199  1
 N  N9  1  0.87290  0.06403  0.20394  1
 N  N10  1  0.57998  0.93454  0.57055  1
 N  N11  1  0.20468  0.24842  0.05801  1
 N  N12  1  0.12710  0.93597  0.79606  1
 W  W1  1  0.15860  0.23846  0.36120  1
 W  W2  1  0.15860  0.26154  0.86120  1
 W  W3  1  0.84140  0.73846  0.13880  1
 W  W4  1  0.84140  0.76154  0.63880  1
