CIF file written using JARVIS-Tools package.
data_CrBr2
_symmetry_space_group_name_H-M  'C2/m'
_cell_length_a       3.65185
_cell_length_b       4.0155
_cell_length_c       6.15332
_cell_angle_alpha    94.1393
_cell_angle_beta     90
_cell_angle_gamma    117.047

_symmetry_Int_Tables_number  12
_chemical_formula_structural  CrBr2
_chemical_formula_sum  CrBr2
_cell_volume  80.09985464174208
_cell_formula_units_Z  1
loop_
  _symmetry_equiv_pos_site_id
 _symmetry_equiv_pos_as_xyz
 1  'x, y, z'
loop_
 _atom_site_type_symbol
 _atom_site_label
 _atom_site_symmetry_multiplicity
 _atom_site_fract_x
 _atom_site_fract_y
 _atom_site_fract_z
 _atom_site_fract_occupancy
 Br  Br1  1  0.64804  0.29608  0.24454  1
 Br  Br2  1  0.35196  0.70392  0.75546  1
 Cr  Cr1  1  0.00000  0.00000  0.00000  1
