CIF file written using JARVIS-Tools package.
data_RbCaBr3
_symmetry_space_group_name_H-M  'Pm-3m'
_cell_length_a       5.63941
_cell_length_b       5.63944
_cell_length_c       5.63942
_cell_angle_alpha    90.0118
_cell_angle_beta     90.0141
_cell_angle_gamma    89.998

_symmetry_Int_Tables_number  221
_chemical_formula_structural  RbCaBr3
_chemical_formula_sum  RbCaBr3
_cell_volume  179.3516204145426
_cell_formula_units_Z  1
loop_
  _symmetry_equiv_pos_site_id
 _symmetry_equiv_pos_as_xyz
 1  'x, y, z'
loop_
 _atom_site_type_symbol
 _atom_site_label
 _atom_site_symmetry_multiplicity
 _atom_site_fract_x
 _atom_site_fract_y
 _atom_site_fract_z
 _atom_site_fract_occupancy
 Br  Br1  1  0.48787  0.00001  0.49792  1
 Br  Br2  1  0.98793  0.49993  0.49780  1
 Br  Br3  1  0.48789  0.50012  0.99803  1
 Ca  Ca1  1  0.48794  0.50001  0.49807  1
 Rb  Rb1  1  0.98838  0.99993  0.99818  1
