CIF file written using JARVIS-Tools package.
data_KCaBr3
_symmetry_space_group_name_H-M  'Cmcm'
_cell_length_a       4.23779
_cell_length_b       10.7223
_cell_length_c       7.28533
_cell_angle_alpha    90
_cell_angle_beta     106.903
_cell_angle_gamma    90

_symmetry_Int_Tables_number  63
_chemical_formula_structural  KCaBr3
_chemical_formula_sum  K2Ca2Br6
_cell_volume  316.7368500006293
_cell_formula_units_Z  2
loop_
  _symmetry_equiv_pos_site_id
 _symmetry_equiv_pos_as_xyz
 1  'x, y, z'
loop_
 _atom_site_type_symbol
 _atom_site_label
 _atom_site_symmetry_multiplicity
 _atom_site_fract_x
 _atom_site_fract_y
 _atom_site_fract_z
 _atom_site_fract_occupancy
 Br  Br1  1  0.63636  0.44363  0.27279  1
 Br  Br2  1  0.36364  0.94363  0.72721  1
 Br  Br3  1  0.63636  0.05637  0.27279  1
 Br  Br4  1  0.36364  0.55637  0.72721  1
 Br  Br5  1  0.07113  0.75000  0.14199  1
 Br  Br6  1  0.92887  0.25000  0.85801  1
 Ca  Ca1  1  0.00000  0.50000  0.00000  1
 Ca  Ca2  1  0.00000  0.00000  0.00000  1
 K  K1  1  0.74791  0.75000  0.49558  1
 K  K2  1  0.25209  0.25000  0.50442  1
