CIF file written using JARVIS-Tools package.
data_TbAgSe2
_symmetry_space_group_name_H-M  'I4_1md'
_cell_length_a       7.35629
_cell_length_b       7.35629
_cell_length_c       7.35629
_cell_angle_alpha    134.544
_cell_angle_beta     134.544
_cell_angle_gamma    66.24

_symmetry_Int_Tables_number  109
_chemical_formula_structural  TbAgSe2
_chemical_formula_sum  Tb2Ag2Se4
_cell_volume  199.0761812157382
_cell_formula_units_Z  2
loop_
  _symmetry_equiv_pos_site_id
 _symmetry_equiv_pos_as_xyz
 1  'x, y, z'
loop_
 _atom_site_type_symbol
 _atom_site_label
 _atom_site_symmetry_multiplicity
 _atom_site_fract_x
 _atom_site_fract_y
 _atom_site_fract_z
 _atom_site_fract_occupancy
 Ag  Ag1  1  0.53660  0.53660  0.00000  1
 Ag  Ag2  1  0.28660  0.78660  0.50000  1
 Se  Se1  1  0.23446  0.23446  0.00000  1
 Se  Se2  1  0.98446  0.48447  0.50000  1
 Se  Se3  1  0.76677  0.76677  0.00000  1
 Se  Se4  1  0.51677  0.01677  0.50000  1
 Tb  Tb1  1  0.00217  0.00217  0.00000  1
 Tb  Tb2  1  0.75217  0.25217  0.50000  1
