CIF file written using JARVIS-Tools package.
data_AsH5COF6
_symmetry_space_group_name_H-M  'P2_1/m'
_cell_length_a       4.77287
_cell_length_b       7.1243
_cell_length_c       8.46506
_cell_angle_alpha    90
_cell_angle_beta     97.2004
_cell_angle_gamma    90

_symmetry_Int_Tables_number  11
_chemical_formula_structural  AsH5COF6
_chemical_formula_sum  As2H0C2O2F2
_cell_volume  285.5708647125336
_cell_formula_units_Z  2
loop_
  _symmetry_equiv_pos_site_id
 _symmetry_equiv_pos_as_xyz
 1  'x, y, z'
loop_
 _atom_site_type_symbol
 _atom_site_label
 _atom_site_symmetry_multiplicity
 _atom_site_fract_x
 _atom_site_fract_y
 _atom_site_fract_z
 _atom_site_fract_occupancy
 As  As1  1  0.93315  0.75000  0.70024  1
 As  As2  1  0.06685  0.25000  0.29976  1
 C  C1  1  0.67987  0.25000  0.87001  1
 C  C2  1  0.32013  0.75000  0.12999  1
 F  F1  1  0.31496  0.07759  0.38858  1
 F  F2  1  0.84032  0.42987  0.21819  1
 F  F3  1  0.24211  0.25000  0.12806  1
 F  F4  1  0.68504  0.57759  0.61142  1
 F  F5  1  0.90960  0.25000  0.47667  1
 F  F6  1  0.31496  0.42241  0.38858  1
 F  F7  1  0.84032  0.07013  0.21819  1
 F  F8  1  0.75789  0.75000  0.87194  1
 F  F9  1  0.15968  0.57013  0.78181  1
 F  F10  1  0.68504  0.92241  0.61142  1
 F  F11  1  0.09040  0.75000  0.52333  1
 F  F12  1  0.15968  0.92987  0.78181  1
 H  H1  1  0.58336  0.13308  0.64680  1
 H  H2  1  0.60872  0.37649  0.92590  1
 H  H3  1  0.39128  0.62351  0.07410  1
 H  H4  1  0.90865  0.25000  0.86731  1
 H  H5  1  0.39128  0.87649  0.07410  1
 H  H6  1  0.60872  0.12351  0.92590  1
 H  H7  1  0.41664  0.63308  0.35320  1
 H  H8  1  0.09135  0.75000  0.13269  1
 H  H9  1  0.41664  0.86692  0.35320  1
 H  H10  1  0.58336  0.36692  0.64680  1
 O  O1  1  0.53492  0.25000  0.70435  1
 O  O2  1  0.46508  0.75000  0.29565  1
