CIF file written using JARVIS-Tools package.
data_NiH2O2
_symmetry_space_group_name_H-M  'P3m1'
_cell_length_a       3.36731
_cell_length_b       3.36797
_cell_length_c       4.11897
_cell_angle_alpha    90.0001
_cell_angle_beta     89.9961
_cell_angle_gamma    120.007

_symmetry_Int_Tables_number  156
_chemical_formula_structural  NiH2O2
_chemical_formula_sum  NiH2O2
_cell_volume  40.452296896670944
_cell_formula_units_Z  1
loop_
  _symmetry_equiv_pos_site_id
 _symmetry_equiv_pos_as_xyz
 1  'x, y, z'
loop_
 _atom_site_type_symbol
 _atom_site_label
 _atom_site_symmetry_multiplicity
 _atom_site_fract_x
 _atom_site_fract_y
 _atom_site_fract_z
 _atom_site_fract_occupancy
 H  H1  1  0.66673  0.33336  0.02894  1
 H  H2  1  0.33337  0.66668  0.43822  1
 Ni  Ni1  1  0.99996  0.99998  0.97991  1
 O  O1  1  0.66659  0.33329  0.78787  1
 O  O2  1  0.33337  0.66668  0.19880  1
