CIF file written using JARVIS-Tools package.
data_AgClO2
_symmetry_space_group_name_H-M  'C2/c'
_cell_length_a       3.48498
_cell_length_b       4.85513
_cell_length_c       9.46675
_cell_angle_alpha    75.1416
_cell_angle_beta     89.8852
_cell_angle_gamma    89.5523

_symmetry_Int_Tables_number  15
_chemical_formula_structural  AgClO2
_chemical_formula_sum  Ag2Cl2O4
_cell_volume  154.81703985374656
_cell_formula_units_Z  2
loop_
  _symmetry_equiv_pos_site_id
 _symmetry_equiv_pos_as_xyz
 1  'x, y, z'
loop_
 _atom_site_type_symbol
 _atom_site_label
 _atom_site_symmetry_multiplicity
 _atom_site_fract_x
 _atom_site_fract_y
 _atom_site_fract_z
 _atom_site_fract_occupancy
 Ag  Ag1  1  -0.00000  0.50000  0.50000  1
 Ag  Ag2  1  0.50000  0.00000  0.50000  1
 Cl  Cl1  1  0.75000  0.35169  0.29663  1
 Cl  Cl2  1  0.25000  0.64831  0.70337  1
 O  O1  1  0.75135  0.91028  0.92546  1
 O  O2  1  0.74865  0.16426  0.92546  1
 O  O3  1  0.25135  0.83574  0.07454  1
 O  O4  1  0.24865  0.08972  0.07454  1
