CIF file written using JARVIS-Tools package.
data_HgBi2S4
_symmetry_space_group_name_H-M  'C2/m'
_cell_length_a       4.08501
_cell_length_b       7.48257
_cell_length_c       12.5659
_cell_angle_alpha    86.2467
_cell_angle_beta     80.6543
_cell_angle_gamma    74.1799

_symmetry_Int_Tables_number  12
_chemical_formula_structural  HgBi2S4
_chemical_formula_sum  Hg2Bi4S8
_cell_volume  364.5485777570117
_cell_formula_units_Z  2
loop_
  _symmetry_equiv_pos_site_id
 _symmetry_equiv_pos_as_xyz
 1  'x, y, z'
loop_
 _atom_site_type_symbol
 _atom_site_label
 _atom_site_symmetry_multiplicity
 _atom_site_fract_x
 _atom_site_fract_y
 _atom_site_fract_z
 _atom_site_fract_occupancy
 Bi  Bi1  1  0.34902  0.44214  0.85949  1
 Bi  Bi2  1  0.77911  0.07553  0.36615  1
 Bi  Bi3  1  0.65098  0.55786  0.14051  1
 Bi  Bi4  1  0.22089  0.92447  0.63385  1
 Hg  Hg1  1  0.00000  0.00000  0.00000  1
 Hg  Hg2  1  -0.00000  0.50000  0.50000  1
 S  S1  1  -0.00187  0.83435  0.17003  1
 S  S2  1  0.69121  0.68108  0.93668  1
 S  S3  1  0.15631  0.36121  0.32635  1
 S  S4  1  0.30879  0.31892  0.06332  1
 S  S5  1  0.00187  0.16565  0.82997  1
 S  S6  1  0.37468  0.82561  0.42449  1
 S  S7  1  0.84369  0.63879  0.67365  1
 S  S8  1  0.62532  0.17439  0.57551  1
