CIF file written using JARVIS-Tools package.
data_Li6PS5Br
_symmetry_space_group_name_H-M  'F-43m'
_cell_length_a       7.20208
_cell_length_b       7.20208
_cell_length_c       7.20208
_cell_angle_alpha    60
_cell_angle_beta     60
_cell_angle_gamma    60

_symmetry_Int_Tables_number  216
_chemical_formula_structural  Li6PS5Br
_chemical_formula_sum  Li6PS5Br
_cell_volume  264.15562473375576
_cell_formula_units_Z  1
loop_
  _symmetry_equiv_pos_site_id
 _symmetry_equiv_pos_as_xyz
 1  'x, y, z'
loop_
 _atom_site_type_symbol
 _atom_site_label
 _atom_site_symmetry_multiplicity
 _atom_site_fract_x
 _atom_site_fract_y
 _atom_site_fract_z
 _atom_site_fract_occupancy
 Br  Br1  1  0.00000  0.00000  0.00000  1
 Li  Li1  1  0.02328  0.47672  0.02328  1
 Li  Li2  1  0.47672  0.02328  0.47672  1
 Li  Li3  1  0.02328  0.47672  0.47672  1
 Li  Li4  1  0.47672  0.02328  0.02328  1
 Li  Li5  1  0.02328  0.02328  0.47672  1
 Li  Li6  1  0.47672  0.47672  0.02328  1
 P  P1  1  0.50000  0.50000  0.50000  1
 S  S1  1  0.61675  0.61675  0.14974  1
 S  S2  1  0.61675  0.14974  0.61675  1
 S  S3  1  0.14974  0.61675  0.61675  1
 S  S4  1  0.61675  0.61675  0.61675  1
 S  S5  1  0.25000  0.25000  0.25000  1
