CIF file written using JARVIS-Tools package.
data_RbAgBr3
_symmetry_space_group_name_H-M  'Pm-3m'
_cell_length_a       5.36589
_cell_length_b       5.36602
_cell_length_c       5.36597
_cell_angle_alpha    90.0016
_cell_angle_beta     90.0004
_cell_angle_gamma    90.0009

_symmetry_Int_Tables_number  221
_chemical_formula_structural  RbAgBr3
_chemical_formula_sum  RbAgBr3
_cell_volume  154.5048951967382
_cell_formula_units_Z  1
loop_
  _symmetry_equiv_pos_site_id
 _symmetry_equiv_pos_as_xyz
 1  'x, y, z'
loop_
 _atom_site_type_symbol
 _atom_site_label
 _atom_site_symmetry_multiplicity
 _atom_site_fract_x
 _atom_site_fract_y
 _atom_site_fract_z
 _atom_site_fract_occupancy
 Ag  Ag1  1  0.50001  0.51208  0.50207  1
 Br  Br1  1  0.00000  0.51201  0.50191  1
 Br  Br2  1  0.50004  0.01208  0.50211  1
 Br  Br3  1  0.49995  0.51205  0.00205  1
 Rb  Rb1  1  -0.00000  0.01179  0.00187  1
