CIF file written using JARVIS-Tools package.
data_RbOsO3
_symmetry_space_group_name_H-M  'R-3'
_cell_length_a       5.52619
_cell_length_b       5.52619
_cell_length_c       6.91214
_cell_angle_alpha    66.4377
_cell_angle_beta     66.4376
_cell_angle_gamma    60

_symmetry_Int_Tables_number  148
_chemical_formula_structural  RbOsO3
_chemical_formula_sum  Rb2Os2O6
_cell_volume  162.16775569385402
_cell_formula_units_Z  2
loop_
  _symmetry_equiv_pos_site_id
 _symmetry_equiv_pos_as_xyz
 1  'x, y, z'
loop_
 _atom_site_type_symbol
 _atom_site_label
 _atom_site_symmetry_multiplicity
 _atom_site_fract_x
 _atom_site_fract_y
 _atom_site_fract_z
 _atom_site_fract_occupancy
 O  O1  1  0.46790  0.65014  0.82627  1
 O  O2  1  0.05569  0.46790  0.82627  1
 O  O3  1  0.65014  0.05570  0.82627  1
 O  O4  1  0.53210  0.34986  0.17373  1
 O  O5  1  0.34987  0.94430  0.17373  1
 O  O6  1  0.94430  0.53210  0.17373  1
 Os  Os1  1  0.66572  0.66572  0.00284  1
 Os  Os2  1  0.33428  0.33428  0.99716  1
 Rb  Rb1  1  0.86327  0.86327  0.41018  1
 Rb  Rb2  1  0.13673  0.13672  0.58982  1
