CIF file written using JARVIS-Tools package.
data_Ca2SnS4
_symmetry_space_group_name_H-M  'P4_122'
_cell_length_a       8.61952
_cell_length_b       8.61952
_cell_length_c       9.06487
_cell_angle_alpha    90
_cell_angle_beta     90
_cell_angle_gamma    90

_symmetry_Int_Tables_number  91
_chemical_formula_structural  Ca2SnS4
_chemical_formula_sum  Ca8Sn4S6
_cell_volume  673.48525045135
_cell_formula_units_Z  4
loop_
  _symmetry_equiv_pos_site_id
 _symmetry_equiv_pos_as_xyz
 1  'x, y, z'
loop_
 _atom_site_type_symbol
 _atom_site_label
 _atom_site_symmetry_multiplicity
 _atom_site_fract_x
 _atom_site_fract_y
 _atom_site_fract_z
 _atom_site_fract_occupancy
 Ca  Ca1  1  0.26065  0.00000  0.25000  1
 Ca  Ca2  1  0.73935  0.00000  0.75000  1
 Ca  Ca3  1  0.00000  0.26065  0.50000  1
 Ca  Ca4  1  0.00000  0.73935  0.00000  1
 Ca  Ca5  1  0.23981  0.23981  0.87500  1
 Ca  Ca6  1  0.76019  0.76019  0.37500  1
 Ca  Ca7  1  0.76019  0.23981  0.12500  1
 Ca  Ca8  1  0.23981  0.76019  0.62500  1
 S  S1  1  0.93378  0.73342  0.69967  1
 S  S2  1  0.06622  0.73342  0.30033  1
 S  S3  1  0.93378  0.26658  0.80033  1
 S  S4  1  0.06622  0.26658  0.19967  1
 S  S5  1  0.73342  0.06622  0.44967  1
 S  S6  1  0.27090  0.45693  0.52656  1
 S  S7  1  0.73342  0.93378  0.05033  1
 S  S8  1  0.26658  0.93378  -0.05033  1
 S  S9  1  0.45693  0.27090  0.22344  1
 S  S10  1  0.54307  0.27090  0.77656  1
 S  S11  1  0.72910  0.45693  0.47344  1
 S  S12  1  0.27090  0.54307  -0.02656  1
 S  S13  1  0.26658  0.06622  0.55033  1
 S  S14  1  0.45693  0.72910  0.27656  1
 S  S15  1  0.54307  0.72910  0.72344  1
 S  S16  1  0.72910  0.54307  0.02656  1
 Sn  Sn1  1  0.25113  0.50000  0.25000  1
 Sn  Sn2  1  0.74887  0.50000  0.75000  1
 Sn  Sn3  1  0.50000  0.25113  0.50000  1
 Sn  Sn4  1  0.50000  0.74887  0.00000  1
