CIF file written using JARVIS-Tools package.
data_TbTlS2
_symmetry_space_group_name_H-M  'R-3m'
_cell_length_a       4.03195
_cell_length_b       4.03195
_cell_length_c       7.83062
_cell_angle_alpha    75.0813
_cell_angle_beta     75.0813
_cell_angle_gamma    59.9999

_symmetry_Int_Tables_number  166
_chemical_formula_structural  TbTlS2
_chemical_formula_sum  TbTlS2
_cell_volume  105.2606052978366
_cell_formula_units_Z  1
loop_
  _symmetry_equiv_pos_site_id
 _symmetry_equiv_pos_as_xyz
 1  'x, y, z'
loop_
 _atom_site_type_symbol
 _atom_site_label
 _atom_site_symmetry_multiplicity
 _atom_site_fract_x
 _atom_site_fract_y
 _atom_site_fract_z
 _atom_site_fract_occupancy
 S  S1  1  0.73335  0.73335  0.79994  1
 S  S2  1  0.26665  0.26665  0.20006  1
 Tb  Tb1  1  0.00000  0.00000  0.00000  1
 Tl  Tl1  1  0.50000  0.50000  0.50000  1
