CIF file written using JARVIS-Tools package.
data_Mn3OF6
_symmetry_space_group_name_H-M  'P-1'
_cell_length_a       7.43251
_cell_length_b       4.94133
_cell_length_c       7.81335
_cell_angle_alpha    96.6529
_cell_angle_beta     66.8397
_cell_angle_gamma    89.4326

_symmetry_Int_Tables_number  2
_chemical_formula_structural  Mn3OF6
_chemical_formula_sum  Mn6O2F2
_cell_volume  261.5703700215665
_cell_formula_units_Z  2
loop_
  _symmetry_equiv_pos_site_id
 _symmetry_equiv_pos_as_xyz
 1  'x, y, z'
loop_
 _atom_site_type_symbol
 _atom_site_label
 _atom_site_symmetry_multiplicity
 _atom_site_fract_x
 _atom_site_fract_y
 _atom_site_fract_z
 _atom_site_fract_occupancy
 F  F1  1  0.66340  0.38632  0.38011  1
 F  F2  1  0.08097  0.76545  0.03155  1
 F  F3  1  0.74445  0.28982  0.71139  1
 F  F4  1  0.06256  0.26010  0.24160  1
 F  F5  1  0.33660  0.61368  0.61989  1
 F  F6  1  0.25555  0.71018  0.28861  1
 F  F7  1  0.52698  0.33384  0.10290  1
 F  F8  1  0.47302  0.66616  0.89710  1
 F  F9  1  0.67997  0.91401  0.46828  1
 F  F10  1  0.91903  0.23455  -0.03155  1
 F  F11  1  0.93744  0.73990  0.75840  1
 F  F12  1  0.32003  0.08599  0.53172  1
 Mn  Mn1  1  0.73050  0.54414  0.92501  1
 Mn  Mn2  1  0.85331  0.04094  0.21059  1
 Mn  Mn3  1  0.51774  0.28794  0.63782  1
 Mn  Mn4  1  0.48226  0.71206  0.36218  1
 Mn  Mn5  1  0.14669  0.95906  0.78941  1
 Mn  Mn6  1  0.26950  0.45586  0.07499  1
 O  O1  1  0.31612  0.20334  0.85966  1
 O  O2  1  0.68388  0.79666  0.14034  1
