CIF file written using JARVIS-Tools package.
data_RuC
_symmetry_space_group_name_H-M  'R-3m'
_cell_length_a       2.78338
_cell_length_b       2.78338
_cell_length_c       6.48166
_cell_angle_alpha    77.6014
_cell_angle_beta     77.6014
_cell_angle_gamma    60

_symmetry_Int_Tables_number  166
_chemical_formula_structural  RuC
_chemical_formula_sum  Ru2C2
_cell_volume  42.1296033542066
_cell_formula_units_Z  2
loop_
  _symmetry_equiv_pos_site_id
 _symmetry_equiv_pos_as_xyz
 1  'x, y, z'
loop_
 _atom_site_type_symbol
 _atom_site_label
 _atom_site_symmetry_multiplicity
 _atom_site_fract_x
 _atom_site_fract_y
 _atom_site_fract_z
 _atom_site_fract_occupancy
 C  C1  1  0.03694  0.03694  0.88917  1
 C  C2  1  0.96306  0.96306  0.11083  1
 Ru  Ru1  1  0.22881  0.22881  0.31358  1
 Ru  Ru2  1  0.77119  0.77119  0.68642  1
