CIF file written using JARVIS-Tools package.
data_RbPbBr3
_symmetry_space_group_name_H-M  'Cmcm'
_cell_length_a       4.4413
_cell_length_b       11.3299
_cell_length_c       7.47428
_cell_angle_alpha    90
_cell_angle_beta     107.281
_cell_angle_gamma    90

_symmetry_Int_Tables_number  63
_chemical_formula_structural  RbPbBr3
_chemical_formula_sum  Rb2Pb2Br6
_cell_volume  359.1240291671647
_cell_formula_units_Z  2
loop_
  _symmetry_equiv_pos_site_id
 _symmetry_equiv_pos_as_xyz
 1  'x, y, z'
loop_
 _atom_site_type_symbol
 _atom_site_label
 _atom_site_symmetry_multiplicity
 _atom_site_fract_x
 _atom_site_fract_y
 _atom_site_fract_z
 _atom_site_fract_occupancy
 Br  Br1  1  0.64216  0.70768  0.28435  1
 Br  Br2  1  0.35784  0.20768  0.71565  1
 Br  Br3  1  0.64220  0.31138  0.28440  1
 Br  Br4  1  0.35780  0.81138  0.71560  1
 Br  Br5  1  0.06866  0.00954  0.13728  1
 Br  Br6  1  0.93134  0.50954  0.86272  1
 Pb  Pb1  1  0.99999  0.75954  -0.00001  1
 Pb  Pb2  1  0.00001  0.25954  0.00001  1
 Rb  Rb1  1  0.75011  0.00955  0.50020  1
 Rb  Rb2  1  0.24989  0.50955  0.49980  1
