CIF file written using JARVIS-Tools package.
data_RbPbCl3
_symmetry_space_group_name_H-M  'Cmcm'
_cell_length_a       4.27027
_cell_length_b       10.7863
_cell_length_c       7.1661
_cell_angle_alpha    90
_cell_angle_beta     107.327
_cell_angle_gamma    90

_symmetry_Int_Tables_number  63
_chemical_formula_structural  RbPbCl3
_chemical_formula_sum  Rb2Pb2Cl6
_cell_volume  315.0936666386671
_cell_formula_units_Z  2
loop_
  _symmetry_equiv_pos_site_id
 _symmetry_equiv_pos_as_xyz
 1  'x, y, z'
loop_
 _atom_site_type_symbol
 _atom_site_label
 _atom_site_symmetry_multiplicity
 _atom_site_fract_x
 _atom_site_fract_y
 _atom_site_fract_z
 _atom_site_fract_occupancy
 Cl  Cl1  1  0.64063  0.70673  0.28123  1
 Cl  Cl2  1  0.35937  0.20673  0.71877  1
 Cl  Cl3  1  0.64064  0.31235  0.28125  1
 Cl  Cl4  1  0.35936  0.81235  0.71875  1
 Cl  Cl5  1  0.06937  0.00954  0.13880  1
 Cl  Cl6  1  0.93063  0.50954  0.86120  1
 Pb  Pb1  1  -0.00000  0.75954  -0.00001  1
 Pb  Pb2  1  0.00000  0.25954  0.00001  1
 Rb  Rb1  1  0.74922  0.00954  0.49845  1
 Rb  Rb2  1  0.25078  0.50954  0.50155  1
