CIF file written using JARVIS-Tools package.
data_OsO2F3
_symmetry_space_group_name_H-M  'Pc'
_cell_length_a       5.02296
_cell_length_b       5.4123
_cell_length_c       12.1038
_cell_angle_alpha    99.439
_cell_angle_beta     90
_cell_angle_gamma    90

_symmetry_Int_Tables_number  7
_chemical_formula_structural  OsO2F3
_chemical_formula_sum  Os4O8F2
_cell_volume  324.5958609360239
_cell_formula_units_Z  4
loop_
  _symmetry_equiv_pos_site_id
 _symmetry_equiv_pos_as_xyz
 1  'x, y, z'
loop_
 _atom_site_type_symbol
 _atom_site_label
 _atom_site_symmetry_multiplicity
 _atom_site_fract_x
 _atom_site_fract_y
 _atom_site_fract_z
 _atom_site_fract_occupancy
 F  F1  1  0.63212  0.88054  0.58919  1
 F  F2  1  0.69544  0.05377  0.40469  1
 F  F3  1  0.36788  0.88054  0.08919  1
 F  F4  1  0.82842  0.34204  0.61112  1
 F  F5  1  0.13678  0.14151  0.31963  1
 F  F6  1  0.81562  0.97054  0.00178  1
 F  F7  1  0.30456  0.05377  0.90469  1
 F  F8  1  0.64203  0.25693  0.19758  1
 F  F9  1  0.18438  0.97054  0.50178  1
 F  F10  1  0.17158  0.34204  0.11112  1
 F  F11  1  0.35797  0.25693  0.69758  1
 F  F12  1  0.86322  0.14151  0.81963  1
 O  O1  1  0.66871  0.67303  0.80137  1
 O  O2  1  0.85871  0.75236  0.20867  1
 O  O3  1  0.11919  0.60861  0.91105  1
 O  O4  1  0.14129  0.75236  0.70867  1
 O  O5  1  0.88081  0.60861  0.41105  1
 O  O6  1  0.33129  0.67303  0.30137  1
 O  O7  1  0.62162  0.42435  0.99557  1
 O  O8  1  0.37838  0.42435  0.49557  1
 Os  Os1  1  0.50814  0.18740  0.55225  1
 Os  Os2  1  0.97258  0.80957  0.83322  1
 Os  Os3  1  0.02742  0.80957  0.33322  1
 Os  Os4  1  0.49186  0.18740  0.05225  1
