CIF file written using JARVIS-Tools package.
data_V3Co5O16
_symmetry_space_group_name_H-M  'P1'
_cell_length_a       5.60048
_cell_length_b       5.57887
_cell_length_c       8.6457
_cell_angle_alpha    90.0385
_cell_angle_beta     90.2056
_cell_angle_gamma    61.258

_symmetry_Int_Tables_number  1
_chemical_formula_structural  V3Co5O16
_chemical_formula_sum  V3Co5O6
_cell_volume  236.84607232782741
_cell_formula_units_Z  1
loop_
  _symmetry_equiv_pos_site_id
 _symmetry_equiv_pos_as_xyz
 1  'x, y, z'
loop_
 _atom_site_type_symbol
 _atom_site_label
 _atom_site_symmetry_multiplicity
 _atom_site_fract_x
 _atom_site_fract_y
 _atom_site_fract_z
 _atom_site_fract_occupancy
 Co  Co1  1  0.66085  0.16348  0.20752  1
 Co  Co2  1  0.33956  0.33381  0.47939  1
 Co  Co3  1  0.17038  0.65485  0.20703  1
 Co  Co4  1  0.83380  0.83108  0.71116  1
 Co  Co5  1  0.67529  0.66782  0.98629  1
 O  O1  1  0.96019  0.52384  0.84170  1
 O  O2  1  0.67491  0.17441  0.60028  1
 O  O3  1  0.48224  0.47512  0.33415  1
 O  O4  1  0.33466  0.32802  0.10027  1
 O  O5  1  0.52460  0.52283  0.83964  1
 O  O6  1  -0.01406  0.01006  0.83282  1
 O  O7  1  0.18470  0.66008  0.60125  1
 O  O8  1  0.99617  0.98844  0.33203  1
 O  O9  1  0.04989  0.46847  0.34085  1
 O  O10  1  0.34651  0.83166  0.09863  1
 O  O11  1  0.17493  0.17095  0.60881  1
 O  O12  1  0.47521  0.04208  0.34080  1
 O  O13  1  0.52802  0.95404  0.83769  1
 O  O14  1  0.66140  0.67781  0.58518  1
 O  O15  1  0.83880  0.33983  0.10028  1
 O  O16  1  0.83693  0.83069  0.10283  1
 V  V1  1  0.29208  0.84145  0.73085  1
 V  V2  1  0.82423  0.36850  0.68377  1
 V  V3  1  0.14892  0.14048  0.21248  1
