CIF file written using JARVIS-Tools package.
data_RbCaCl3
_symmetry_space_group_name_H-M  'Cm'
_cell_length_a       5.34784
_cell_length_b       5.3474
_cell_length_c       5.34775
_cell_angle_alpha    90.0189
_cell_angle_beta     90.0233
_cell_angle_gamma    89.9958

_symmetry_Int_Tables_number  8
_chemical_formula_structural  RbCaCl3
_chemical_formula_sum  RbCaCl3
_cell_volume  152.92954904895544
_cell_formula_units_Z  1
loop_
  _symmetry_equiv_pos_site_id
 _symmetry_equiv_pos_as_xyz
 1  'x, y, z'
loop_
 _atom_site_type_symbol
 _atom_site_label
 _atom_site_symmetry_multiplicity
 _atom_site_fract_x
 _atom_site_fract_y
 _atom_site_fract_z
 _atom_site_fract_occupancy
 Ca  Ca1  1  0.48799  0.50003  0.49805  1
 Cl  Cl1  1  0.48785  0.00004  0.49837  1
 Cl  Cl2  1  0.98794  0.49983  0.49771  1
 Cl  Cl3  1  0.48765  0.50028  0.99806  1
 Rb  Rb1  1  0.98857  -0.00017  0.99782  1
