CIF file written using JARVIS-Tools package.
data_SrGe3Pd
_symmetry_space_group_name_H-M  'I4mm'
_cell_length_a       6.07027
_cell_length_b       6.07027
_cell_length_c       6.07027
_cell_angle_alpha    136.059
_cell_angle_beta     136.059
_cell_angle_gamma    63.8894

_symmetry_Int_Tables_number  107
_chemical_formula_structural  SrGe3Pd
_chemical_formula_sum  SrGe3Pd
_cell_volume  106.27057288132345
_cell_formula_units_Z  1
loop_
  _symmetry_equiv_pos_site_id
 _symmetry_equiv_pos_as_xyz
 1  'x, y, z'
loop_
 _atom_site_type_symbol
 _atom_site_label
 _atom_site_symmetry_multiplicity
 _atom_site_fract_x
 _atom_site_fract_y
 _atom_site_fract_z
 _atom_site_fract_occupancy
 Ge  Ge1  1  0.39925  0.39925  0.00000  1
 Ge  Ge2  1  0.75307  0.25307  0.50000  1
 Ge  Ge3  1  0.25307  0.75307  0.50000  1
 Pd  Pd1  1  0.64267  0.64267  0.00000  1
 Sr  Sr1  1  0.99962  0.99962  -0.00000  1
