CIF file written using JARVIS-Tools package.
data_CdI2
_symmetry_space_group_name_H-M  'P-3m1'
_cell_length_a       4.28649
_cell_length_b       4.28649
_cell_length_c       61.9188
_cell_angle_alpha    90
_cell_angle_beta     90
_cell_angle_gamma    120

_symmetry_Int_Tables_number  164
_chemical_formula_structural  CdI2
_chemical_formula_sum  Cd9I8
_cell_volume  985.2725182600162
_cell_formula_units_Z  9
loop_
  _symmetry_equiv_pos_site_id
 _symmetry_equiv_pos_as_xyz
 1  'x, y, z'
loop_
 _atom_site_type_symbol
 _atom_site_label
 _atom_site_symmetry_multiplicity
 _atom_site_fract_x
 _atom_site_fract_y
 _atom_site_fract_z
 _atom_site_fract_occupancy
 Cd  Cd1  1  0.33333  0.66667  0.36108  1
 Cd  Cd2  1  0.00000  0.00000  0.47221  1
 Cd  Cd3  1  0.33333  0.66667  0.13889  1
 Cd  Cd4  1  0.33333  0.66667  0.80559  1
 Cd  Cd5  1  0.00000  0.00000  0.69443  1
 Cd  Cd6  1  0.66667  0.33333  0.02780  1
 Cd  Cd7  1  0.33333  0.66667  0.91666  1
 Cd  Cd8  1  0.33333  0.66667  0.58331  1
 Cd  Cd9  1  0.66667  0.33333  0.25002  1
 I  I1  1  0.66667  0.33333  0.83359  1
 I  I2  1  0.00000  0.00000  0.22201  1
 I  I3  1  0.33333  0.66667  0.66643  1
 I  I4  1  0.66667  0.33333  0.72244  1
 I  I5  1  0.33333  0.66667  0.27802  1
 I  I6  1  0.66667  0.33333  0.16689  1
 I  I7  1  0.00000  0.00000  0.11088  1
 I  I8  1  0.00000  0.00000  0.77758  1
 I  I9  1  0.00000  0.00000  0.55532  1
 I  I10  1  0.00000  0.00000  -0.00021  1
 I  I11  1  0.33333  0.66667  0.44421  1
 I  I12  1  0.33333  0.66667  0.05580  1
 I  I13  1  0.66667  0.33333  0.38909  1
 I  I14  1  0.66667  0.33333  0.94467  1
 I  I15  1  0.00000  0.00000  0.33308  1
 I  I16  1  0.66667  0.33333  0.61133  1
 I  I17  1  0.66667  0.33333  0.50022  1
 I  I18  1  0.00000  0.00000  0.88866  1
