CIF file written using JARVIS-Tools package.
data_Li2VH2OF5
_symmetry_space_group_name_H-M  'P-1'
_cell_length_a       5.8012
_cell_length_b       5.20928
_cell_length_c       7.6992
_cell_angle_alpha    83.4716
_cell_angle_beta     84.3211
_cell_angle_gamma    71.0222

_symmetry_Int_Tables_number  2
_chemical_formula_structural  Li2VH2OF5
_chemical_formula_sum  Li4V2H4O2F0
_cell_volume  218.1207581432603
_cell_formula_units_Z  2
loop_
  _symmetry_equiv_pos_site_id
 _symmetry_equiv_pos_as_xyz
 1  'x, y, z'
loop_
 _atom_site_type_symbol
 _atom_site_label
 _atom_site_symmetry_multiplicity
 _atom_site_fract_x
 _atom_site_fract_y
 _atom_site_fract_z
 _atom_site_fract_occupancy
 F  F1  1  0.62516  0.00142  0.63740  1
 F  F2  1  0.08600  0.55458  0.14390  1
 F  F3  1  0.79966  0.41225  0.51845  1
 F  F4  1  0.57523  0.54462  0.19198  1
 F  F5  1  0.43567  0.45793  0.80141  1
 F  F6  1  0.21124  0.59035  0.47496  1
 F  F7  1  0.74296  0.03236  0.97767  1
 F  F8  1  0.92487  0.44806  0.84952  1
 F  F9  1  0.38582  0.00113  0.35603  1
 F  F10  1  0.26796  0.97026  0.01576  1
 H  H1  1  0.20947  0.90988  0.81211  1
 H  H2  1  0.15975  0.80516  0.63447  1
 H  H3  1  0.85120  0.19746  0.35898  1
 H  H4  1  0.80146  0.09278  0.18134  1
 Li  Li1  1  0.70331  0.78444  0.44544  1
 Li  Li2  1  0.30769  0.21815  0.54798  1
 Li  Li3  1  0.23634  0.33498  -0.03419  1
 Li  Li4  1  0.77453  0.66766  0.02763  1
 O  O1  1  0.12565  0.97002  0.70039  1
 O  O2  1  0.88530  0.03261  0.29305  1
 V  V1  1  0.24478  0.77566  0.24338  1
 V  V2  1  0.76615  0.22693  0.75005  1
