CIF file written using JARVIS-Tools package.
data_H16RhN5Cl6O3
_symmetry_space_group_name_H-M  'R32'
_cell_length_a       6.85221
_cell_length_b       6.85204
_cell_length_c       9.20728
_cell_angle_alpha    111.851
_cell_angle_beta     90
_cell_angle_gamma    120.001

_symmetry_Int_Tables_number  155
_chemical_formula_structural  H16RhN5Cl6O3
_chemical_formula_sum  H6RhN5Cl6O3
_cell_volume  338.03749153769786
_cell_formula_units_Z  1
loop_
  _symmetry_equiv_pos_site_id
 _symmetry_equiv_pos_as_xyz
 1  'x, y, z'
loop_
 _atom_site_type_symbol
 _atom_site_label
 _atom_site_symmetry_multiplicity
 _atom_site_fract_x
 _atom_site_fract_y
 _atom_site_fract_z
 _atom_site_fract_occupancy
 Cl  Cl1  1  0.62285  0.71667  0.82883  1
 Cl  Cl2  1  0.11210  0.73497  0.82883  1
 Cl  Cl3  1  0.09383  0.20597  0.82885  1
 Cl  Cl4  1  0.88786  0.79403  0.17115  1
 Cl  Cl5  1  0.37713  0.26503  0.17117  1
 Cl  Cl6  1  0.90618  0.28333  0.17117  1
 H  H1  1  0.66332  0.32663  0.98995  1
 H  H2  1  0.33669  0.67337  0.01005  1
 H  H3  1  0.24408  0.63866  0.17246  1
 H  H4  1  0.53381  0.77792  0.17248  1
 H  H5  1  0.39457  0.92840  0.17247  1
 H  H6  1  0.98631  0.73308  0.46136  1
 H  H7  1  0.74675  0.47504  0.46138  1
 H  H8  1  0.60541  0.36134  0.82754  1
 H  H9  1  0.72827  0.71461  0.46139  1
 H  H10  1  0.75589  0.22208  0.82752  1
 H  H11  1  0.46617  0.07159  0.82753  1
 H  H12  1  0.87506  0.75009  0.62509  1
 H  H13  1  0.27171  0.52496  0.53862  1
 H  H14  1  0.25323  0.26692  0.53864  1
 H  H15  1  0.01366  0.28539  0.53861  1
 H  H16  1  0.12497  0.24991  0.37491  1
 N  N1  1  0.83340  0.66681  0.50021  1
 N  N2  1  0.50000  0.00000  0.50000  1
 N  N3  1  0.16659  0.33319  0.49979  1
 N  N4  1  0.62167  0.24336  0.86505  1
 N  N5  1  0.37831  0.75664  0.13495  1
 O  O1  1  0.68513  0.18512  0.49998  1
 O  O2  1  0.31488  -0.00000  0.50000  1
 O  O3  1  0.50001  0.81488  0.50002  1
 Rh  Rh1  1  -0.00001  -0.00000  -0.00000  1
