CIF file written using JARVIS-Tools package.
data_Hg3SbAsS3
_symmetry_space_group_name_H-M  'P2_1/c'
_cell_length_a       4.43608
_cell_length_b       11.7736
_cell_length_c       15.9885
_cell_angle_alpha    91.8393
_cell_angle_beta     90
_cell_angle_gamma    90

_symmetry_Int_Tables_number  14
_chemical_formula_structural  Hg3SbAsS3
_chemical_formula_sum  Hg2Sb4As4S2
_cell_volume  834.6279319603625
_cell_formula_units_Z  4
loop_
  _symmetry_equiv_pos_site_id
 _symmetry_equiv_pos_as_xyz
 1  'x, y, z'
loop_
 _atom_site_type_symbol
 _atom_site_label
 _atom_site_symmetry_multiplicity
 _atom_site_fract_x
 _atom_site_fract_y
 _atom_site_fract_z
 _atom_site_fract_occupancy
 As  As1  1  0.14835  0.90203  0.80879  1
 As  As2  1  0.35165  0.40203  0.30879  1
 As  As3  1  0.85165  0.09797  0.19121  1
 As  As4  1  0.64835  0.59797  0.69121  1
 Hg  Hg1  1  0.26590  0.62988  0.57406  1
 Hg  Hg2  1  0.28219  0.60899  0.81282  1
 Hg  Hg3  1  0.86248  0.88142  0.18129  1
 Hg  Hg4  1  0.73410  0.37012  0.42594  1
 Hg  Hg5  1  0.71781  0.39101  0.18718  1
 Hg  Hg6  1  0.63752  0.38142  0.68129  1
 Hg  Hg7  1  0.78219  0.89101  0.68718  1
 Hg  Hg8  1  0.76590  0.87012  0.92594  1
 Hg  Hg9  1  0.21781  0.10899  0.31282  1
 Hg  Hg10  1  0.36248  0.61858  0.31871  1
 Hg  Hg11  1  0.13752  0.11858  0.81871  1
 Hg  Hg12  1  0.23410  0.12988  0.07406  1
 S  S1  1  0.42637  0.88243  0.56977  1
 S  S2  1  0.56390  0.17270  0.66744  1
 S  S3  1  0.37982  0.85406  0.03632  1
 S  S4  1  0.57363  0.11757  0.43023  1
 S  S5  1  0.43610  0.82730  0.33256  1
 S  S6  1  0.87982  0.64594  0.46368  1
 S  S7  1  0.93610  0.67270  0.16744  1
 S  S8  1  0.62018  0.14594  0.96368  1
 S  S9  1  0.92637  0.61757  0.93023  1
 S  S10  1  0.06390  0.32730  0.83256  1
 S  S11  1  0.12018  0.35406  0.53632  1
 S  S12  1  0.07363  0.38243  0.06977  1
 Sb  Sb1  1  0.30695  0.64250  0.05130  1
 Sb  Sb2  1  0.80695  0.85750  0.44870  1
 Sb  Sb3  1  0.69305  0.35750  0.94870  1
 Sb  Sb4  1  0.19305  0.14250  0.55130  1
