CIF file written using JARVIS-Tools package.
data_VPO5
_symmetry_space_group_name_H-M  'P4/n'
_cell_length_a       6.07683
_cell_length_b       6.07683
_cell_length_c       4.30423
_cell_angle_alpha    90
_cell_angle_beta     90
_cell_angle_gamma    90

_symmetry_Int_Tables_number  85
_chemical_formula_structural  VPO5
_chemical_formula_sum  V2P2O0
_cell_volume  158.9458814766927
_cell_formula_units_Z  2
loop_
  _symmetry_equiv_pos_site_id
 _symmetry_equiv_pos_as_xyz
 1  'x, y, z'
loop_
 _atom_site_type_symbol
 _atom_site_label
 _atom_site_symmetry_multiplicity
 _atom_site_fract_x
 _atom_site_fract_y
 _atom_site_fract_z
 _atom_site_fract_occupancy
 O  O1  1  0.05022  0.70055  0.70839  1
 O  O2  1  0.20055  0.94978  0.29161  1
 O  O3  1  0.25000  0.25000  0.83239  1
 O  O4  1  0.29945  0.55022  0.29161  1
 O  O5  1  0.44978  0.79945  0.70839  1
 O  O6  1  0.55022  0.20055  0.29161  1
 O  O7  1  0.70055  0.44978  0.70839  1
 O  O8  1  0.75000  0.75000  0.16761  1
 O  O9  1  0.79945  0.05022  0.70839  1
 O  O10  1  0.94978  0.29945  0.29161  1
 P  P1  1  0.25000  0.75000  0.50000  1
 P  P2  1  0.75000  0.25000  0.50000  1
 V  V1  1  0.25000  0.25000  0.20680  1
 V  V2  1  0.75000  0.75000  0.79320  1
