CIF file written using JARVIS-Tools package.
data_MnCo2O6
_symmetry_space_group_name_H-M  'C2/m'
_cell_length_a       6.13786
_cell_length_b       2.82685
_cell_length_c       5.46487
_cell_angle_alpha    90
_cell_angle_beta     100.089
_cell_angle_gamma    76.6865

_symmetry_Int_Tables_number  12
_chemical_formula_structural  MnCo2O6
_chemical_formula_sum  MnCo2O6
_cell_volume  90.76395140968613
_cell_formula_units_Z  1
loop_
  _symmetry_equiv_pos_site_id
 _symmetry_equiv_pos_as_xyz
 1  'x, y, z'
loop_
 _atom_site_type_symbol
 _atom_site_label
 _atom_site_symmetry_multiplicity
 _atom_site_fract_x
 _atom_site_fract_y
 _atom_site_fract_z
 _atom_site_fract_occupancy
 Co  Co1  1  -0.00034  0.00017  0.99787  1
 Co  Co2  1  0.66700  0.66650  0.66880  1
 Mn  Mn1  1  0.33333  0.33333  0.33333  1
 O  O1  1  0.02001  0.48999  0.23180  1
 O  O2  1  0.34445  0.82778  0.56121  1
 O  O3  1  0.68523  0.15738  0.89612  1
 O  O4  1  0.32222  0.83889  0.10546  1
 O  O5  1  0.64666  0.17667  0.43487  1
 O  O6  1  0.98144  0.50928  0.77055  1
