CIF file written using JARVIS-Tools package.
data_W2N
_symmetry_space_group_name_H-M  'P-3m1'
_cell_length_a       2.83504
_cell_length_b       2.83504
_cell_length_c       17.6521
_cell_angle_alpha    90
_cell_angle_beta     90
_cell_angle_gamma    120

_symmetry_Int_Tables_number  164
_chemical_formula_structural  W2N
_chemical_formula_sum  W6N3
_cell_volume  122.87014869621979
_cell_formula_units_Z  3
loop_
  _symmetry_equiv_pos_site_id
 _symmetry_equiv_pos_as_xyz
 1  'x, y, z'
loop_
 _atom_site_type_symbol
 _atom_site_label
 _atom_site_symmetry_multiplicity
 _atom_site_fract_x
 _atom_site_fract_y
 _atom_site_fract_z
 _atom_site_fract_occupancy
 N  N1  1  0.00000  0.00000  0.50000  1
 N  N2  1  0.66667  0.33333  0.15044  1
 N  N3  1  0.33333  0.66667  0.84956  1
 W  W1  1  0.00000  0.00000  0.07562  1
 W  W2  1  0.00000  0.00000  0.92438  1
 W  W3  1  0.66667  0.33333  0.26220  1
 W  W4  1  0.33333  0.66667  0.73780  1
 W  W5  1  0.66667  0.33333  0.41697  1
 W  W6  1  0.33333  0.66667  0.58303  1
