CIF file written using JARVIS-Tools package.
data_Zr2ZnAg2F14
_symmetry_space_group_name_H-M  'C2/m'
_cell_length_a       5.62642
_cell_length_b       5.62642
_cell_length_c       9.24101
_cell_angle_alpha    90.8801
_cell_angle_beta     90.8801
_cell_angle_gamma    73.0257

_symmetry_Int_Tables_number  12
_chemical_formula_structural  Zr2ZnAg2F14
_chemical_formula_sum  Zr2ZnAg2F4
_cell_volume  279.74440054426276
_cell_formula_units_Z  1
loop_
  _symmetry_equiv_pos_site_id
 _symmetry_equiv_pos_as_xyz
 1  'x, y, z'
loop_
 _atom_site_type_symbol
 _atom_site_label
 _atom_site_symmetry_multiplicity
 _atom_site_fract_x
 _atom_site_fract_y
 _atom_site_fract_z
 _atom_site_fract_occupancy
 Ag  Ag1  1  0.69046  0.69046  0.38846  1
 Ag  Ag2  1  0.30954  0.30954  0.61153  1
 F  F1  1  0.50000  0.50000  0.50000  1
 F  F2  1  0.00000  0.00000  0.00000  1
 F  F3  1  0.79346  0.38761  0.14046  1
 F  F4  1  0.38761  0.79346  0.14046  1
 F  F5  1  0.31192  0.31192  0.12196  1
 F  F6  1  0.61239  0.20654  0.85954  1
 F  F7  1  0.89875  0.89875  0.28340  1
 F  F8  1  0.35807  0.99819  0.38198  1
 F  F9  1  0.20654  0.61239  0.85954  1
 F  F10  1  0.64193  0.00181  0.61802  1
 F  F11  1  0.00181  0.64193  0.61802  1
 F  F12  1  0.10125  0.10125  0.71660  1
 F  F13  1  0.68808  0.68808  0.87804  1
 F  F14  1  0.99819  0.35807  0.38198  1
 Zn  Zn1  1  0.50000  0.50000  0.00000  1
 Zr  Zr1  1  0.89227  0.89227  0.79456  1
 Zr  Zr2  1  0.10773  0.10773  0.20544  1
