CIF file written using JARVIS-Tools package.
data_TbU3
_symmetry_space_group_name_H-M  'I4/mmm'
_cell_length_a       5.74062
_cell_length_b       5.74062
_cell_length_c       5.74062
_cell_angle_alpha    134.734
_cell_angle_beta     134.734
_cell_angle_gamma    65.9439

_symmetry_Int_Tables_number  139
_chemical_formula_structural  TbU3
_chemical_formula_sum  TbU3
_cell_volume  94.01535591990302
_cell_formula_units_Z  1
loop_
  _symmetry_equiv_pos_site_id
 _symmetry_equiv_pos_as_xyz
 1  'x, y, z'
loop_
 _atom_site_type_symbol
 _atom_site_label
 _atom_site_symmetry_multiplicity
 _atom_site_fract_x
 _atom_site_fract_y
 _atom_site_fract_z
 _atom_site_fract_occupancy
 Tb  Tb1  1  0.00000  0.00000  0.00000  1
 U  U1  1  0.75000  0.25000  0.50000  1
 U  U2  1  0.25000  0.75000  0.50000  1
 U  U3  1  0.50000  0.50000  0.00000  1
