CIF file written using JARVIS-Tools package.
data_TlSbO3
_symmetry_space_group_name_H-M  'P-31c'
_cell_length_a       5.41063
_cell_length_b       5.41062
_cell_length_c       14.1716
_cell_angle_alpha    90
_cell_angle_beta     90
_cell_angle_gamma    120

_symmetry_Int_Tables_number  163
_chemical_formula_structural  TlSbO3
_chemical_formula_sum  Tl4Sb4O2
_cell_volume  359.2893940949494
_cell_formula_units_Z  4
loop_
  _symmetry_equiv_pos_site_id
 _symmetry_equiv_pos_as_xyz
 1  'x, y, z'
loop_
 _atom_site_type_symbol
 _atom_site_label
 _atom_site_symmetry_multiplicity
 _atom_site_fract_x
 _atom_site_fract_y
 _atom_site_fract_z
 _atom_site_fract_occupancy
 O  O1  1  0.33332  0.28349  0.32959  1
 O  O2  1  0.28349  0.33332  0.82959  1
 O  O3  1  0.95017  0.66668  0.32959  1
 O  O4  1  0.71651  0.66668  0.17041  1
 O  O5  1  0.04983  0.33332  0.67041  1
 O  O6  1  0.71651  0.04983  0.32959  1
 O  O7  1  0.33332  0.04983  0.17041  1
 O  O8  1  0.66668  0.71651  0.67041  1
 O  O9  1  0.04983  0.71651  0.82959  1
 O  O10  1  0.28349  0.95017  0.67041  1
 O  O11  1  0.66668  0.95017  0.82959  1
 O  O12  1  0.95017  0.28349  0.17041  1
 Sb  Sb1  1  0.00000  0.00000  0.75000  1
 Sb  Sb2  1  0.33333  0.66667  0.75000  1
 Sb  Sb3  1  0.00000  0.00000  0.25000  1
 Sb  Sb4  1  0.66667  0.33333  0.25000  1
 Tl  Tl1  1  0.66667  0.33333  0.56324  1
 Tl  Tl2  1  0.33333  0.66667  0.06324  1
 Tl  Tl3  1  0.33333  0.66667  0.43676  1
 Tl  Tl4  1  0.66667  0.33333  0.93676  1
