CIF file written using JARVIS-Tools package.
data_KCaCl3
_symmetry_space_group_name_H-M  'P1'
_cell_length_a       5.35982
_cell_length_b       5.3385
_cell_length_c       5.33838
_cell_angle_alpha    89.9911
_cell_angle_beta     90.1498
_cell_angle_gamma    89.7588

_symmetry_Int_Tables_number  1
_chemical_formula_structural  KCaCl3
_chemical_formula_sum  KCaCl3
_cell_volume  152.74747609041003
_cell_formula_units_Z  1
loop_
  _symmetry_equiv_pos_site_id
 _symmetry_equiv_pos_as_xyz
 1  'x, y, z'
loop_
 _atom_site_type_symbol
 _atom_site_label
 _atom_site_symmetry_multiplicity
 _atom_site_fract_x
 _atom_site_fract_y
 _atom_site_fract_z
 _atom_site_fract_occupancy
 Ca  Ca1  1  0.48335  0.50114  0.50052  1
 Cl  Cl1  1  0.45988  0.50153  0.00075  1
 Cl  Cl2  1  0.97945  0.49555  0.50386  1
 Cl  Cl3  1  0.45954  0.00077  0.50033  1
 K  K1  1  0.05778  0.01102  0.99454  1
