CIF file written using JARVIS-Tools package.
data_Li2Cr5Si4O14
_symmetry_space_group_name_H-M  'P-1'
_cell_length_a       5.58627
_cell_length_b       7.5123
_cell_length_c       7.92989
_cell_angle_alpha    113.717
_cell_angle_beta     90.9088
_cell_angle_gamma    105.847

_symmetry_Int_Tables_number  2
_chemical_formula_structural  Li2Cr5Si4O14
_chemical_formula_sum  Li2Cr5Si4O4
_cell_volume  290.0987919146268
_cell_formula_units_Z  1
loop_
  _symmetry_equiv_pos_site_id
 _symmetry_equiv_pos_as_xyz
 1  'x, y, z'
loop_
 _atom_site_type_symbol
 _atom_site_label
 _atom_site_symmetry_multiplicity
 _atom_site_fract_x
 _atom_site_fract_y
 _atom_site_fract_z
 _atom_site_fract_occupancy
 Cr  Cr1  1  0.00000  0.00000  0.00000  1
 Cr  Cr2  1  0.07643  0.38387  0.81037  1
 Cr  Cr3  1  0.66468  0.57477  0.71024  1
 Cr  Cr4  1  0.33532  0.42523  0.28976  1
 Cr  Cr5  1  0.92357  0.61613  0.18963  1
 Li  Li1  1  0.23029  0.10786  0.45008  1
 Li  Li2  1  0.76971  0.89214  0.54992  1
 O  O1  1  0.88453  0.16772  0.57159  1
 O  O2  1  0.21819  0.64426  0.04521  1
 O  O3  1  0.53451  0.01630  0.27618  1
 O  O4  1  0.40264  0.32749  0.72377  1
 O  O5  1  0.02834  0.18714  0.26976  1
 O  O6  1  0.78181  0.35574  0.95479  1
 O  O7  1  0.30418  0.22916  0.01392  1
 O  O8  1  0.69582  0.77084  0.98608  1
 O  O9  1  0.59736  0.67251  0.27623  1
 O  O10  1  0.97166  0.81286  0.73024  1
 O  O11  1  0.70571  0.41163  0.44740  1
 O  O12  1  0.46549  0.98370  0.72382  1
 O  O13  1  0.29429  0.58837  0.55260  1
 O  O14  1  0.11547  0.83228  0.42841  1
 Si  Si1  1  0.49324  0.22592  0.85641  1
 Si  Si2  1  0.79431  0.20976  0.39714  1
 Si  Si3  1  0.20569  0.79024  0.60286  1
 Si  Si4  1  0.50676  0.77408  0.14359  1
