CIF file written using JARVIS-Tools package.
data_LiMnPO4
_symmetry_space_group_name_H-M  'Pnma'
_cell_length_a       5.00481
_cell_length_b       6.32872
_cell_length_c       9.33602
_cell_angle_alpha    90
_cell_angle_beta     90
_cell_angle_gamma    90

_symmetry_Int_Tables_number  62
_chemical_formula_structural  LiMnPO4
_chemical_formula_sum  Li4Mn4P4O6
_cell_volume  295.70951541121974
_cell_formula_units_Z  4
loop_
  _symmetry_equiv_pos_site_id
 _symmetry_equiv_pos_as_xyz
 1  'x, y, z'
loop_
 _atom_site_type_symbol
 _atom_site_label
 _atom_site_symmetry_multiplicity
 _atom_site_fract_x
 _atom_site_fract_y
 _atom_site_fract_z
 _atom_site_fract_occupancy
 Li  Li1  1  0.00000  0.00000  0.00000  1
 Li  Li2  1  0.00000  0.50000  0.00000  1
 Li  Li3  1  0.50000  0.00000  0.50000  1
 Li  Li4  1  0.50000  0.50000  0.50000  1
 Mn  Mn1  1  0.52710  0.25000  0.14680  1
 Mn  Mn2  1  0.02710  0.75000  0.35320  1
 Mn  Mn3  1  0.97290  0.25000  0.64680  1
 Mn  Mn4  1  0.47290  0.75000  0.85320  1
 O  O1  1  0.67141  0.94739  0.11097  1
 O  O2  1  0.17141  0.05261  0.38903  1
 O  O3  1  0.60504  0.75000  0.34404  1
 O  O4  1  0.23460  0.75000  0.15153  1
 O  O5  1  0.67141  0.55261  0.11097  1
 O  O6  1  0.32859  0.05261  0.88903  1
 O  O7  1  0.73460  0.25000  0.34847  1
 O  O8  1  0.10504  0.25000  0.15596  1
 O  O9  1  0.26540  0.75000  0.65153  1
 O  O10  1  0.89496  0.75000  0.84404  1
 O  O11  1  0.82859  0.55261  0.61097  1
 O  O12  1  0.39496  0.25000  0.65596  1
 O  O13  1  0.17141  0.44739  0.38903  1
 O  O14  1  0.32859  0.44739  0.88903  1
 O  O15  1  0.82859  0.94739  0.61097  1
 O  O16  1  0.76540  0.25000  0.84847  1
 P  P1  1  0.53994  0.75000  0.17992  1
 P  P2  1  0.03994  0.25000  0.32008  1
 P  P3  1  0.96006  0.75000  0.67992  1
 P  P4  1  0.46006  0.25000  0.82008  1
