CIF file written using JARVIS-Tools package.
data_YWN3
_symmetry_space_group_name_H-M  'Ama2'
_cell_length_a       3.76806
_cell_length_b       5.43583
_cell_length_c       7.80027
_cell_angle_alpha    110.392
_cell_angle_beta     90
_cell_angle_gamma    90

_symmetry_Int_Tables_number  40
_chemical_formula_structural  YWN3
_chemical_formula_sum  Y2W2N6
_cell_volume  149.756788103283
_cell_formula_units_Z  2
loop_
  _symmetry_equiv_pos_site_id
 _symmetry_equiv_pos_as_xyz
 1  'x, y, z'
loop_
 _atom_site_type_symbol
 _atom_site_label
 _atom_site_symmetry_multiplicity
 _atom_site_fract_x
 _atom_site_fract_y
 _atom_site_fract_z
 _atom_site_fract_occupancy
 N  N1  1  0.75000  0.16528  0.39586  1
 N  N2  1  0.75000  0.82678  0.88928  1
 N  N3  1  0.25000  0.93750  0.11072  1
 N  N4  1  0.25000  0.34719  0.76897  1
 N  N5  1  0.25000  0.76942  0.60414  1
 N  N6  1  0.75000  0.57822  0.23103  1
 W  W1  1  0.25000  0.70022  0.82326  1
 W  W2  1  0.75000  0.87696  0.17674  1
 Y  Y1  1  0.75000  0.07022  0.66168  1
 Y  Y2  1  0.25000  0.40855  0.33832  1
