CIF file written using JARVIS-Tools package.
data_CuO2F
_symmetry_space_group_name_H-M  'Imm2'
_cell_length_a       3.10038
_cell_length_b       4.77125
_cell_length_c       6.47613
_cell_angle_alpha    111.615
_cell_angle_beta     103.849
_cell_angle_gamma    90.0001

_symmetry_Int_Tables_number  44
_chemical_formula_structural  CuO2F
_chemical_formula_sum  Cu2O4F2
_cell_volume  86.0598595581327
_cell_formula_units_Z  2
loop_
  _symmetry_equiv_pos_site_id
 _symmetry_equiv_pos_as_xyz
 1  'x, y, z'
loop_
 _atom_site_type_symbol
 _atom_site_label
 _atom_site_symmetry_multiplicity
 _atom_site_fract_x
 _atom_site_fract_y
 _atom_site_fract_z
 _atom_site_fract_occupancy
 Cu  Cu1  1  0.85243  0.44653  0.70486  1
 Cu  Cu2  1  0.14757  0.74167  0.29514  1
 F  F1  1  0.74509  0.67330  0.49017  1
 F  F2  1  0.25491  0.18313  0.50983  1
 O  O1  1  0.05543  0.30872  0.11087  1
 O  O2  1  0.94457  0.19785  0.88913  1
 O  O3  1  0.44246  0.71181  0.88493  1
 O  O4  1  0.55754  0.82688  0.11507  1
