CIF file written using JARVIS-Tools package.
data_TaI4
_symmetry_space_group_name_H-M  'P-1'
_cell_length_a       7.09028
_cell_length_b       10.6781
_cell_length_c       10.7612
_cell_angle_alpha    79.6236
_cell_angle_beta     90.1895
_cell_angle_gamma    75.426

_symmetry_Int_Tables_number  2
_chemical_formula_structural  TaI4
_chemical_formula_sum  Ta4I6
_cell_volume  774.6123631291339
_cell_formula_units_Z  4
loop_
  _symmetry_equiv_pos_site_id
 _symmetry_equiv_pos_as_xyz
 1  'x, y, z'
loop_
 _atom_site_type_symbol
 _atom_site_label
 _atom_site_symmetry_multiplicity
 _atom_site_fract_x
 _atom_site_fract_y
 _atom_site_fract_z
 _atom_site_fract_occupancy
 I  I1  1  0.12519  0.09541  0.36497  1
 I  I2  1  0.24731  0.94651  0.07820  1
 I  I3  1  0.48988  0.76123  0.83012  1
 I  I4  1  0.87481  0.90459  0.63503  1
 I  I5  1  0.20418  0.13066  0.71527  1
 I  I6  1  0.79582  0.86934  0.28473  1
 I  I7  1  0.34545  0.70859  0.49533  1
 I  I8  1  0.07978  0.45713  0.33614  1
 I  I9  1  0.03073  0.67880  0.97064  1
 I  I10  1  0.56943  0.57273  0.18731  1
 I  I11  1  0.51012  0.23877  0.16988  1
 I  I12  1  0.75269  0.05349  0.92180  1
 I  I13  1  0.96927  0.32120  0.02936  1
 I  I14  1  0.65455  0.29141  0.50467  1
 I  I15  1  0.92022  0.54287  0.66386  1
 I  I16  1  0.43057  0.42727  0.81269  1
 Ta  Ta1  1  0.81120  0.32835  0.27952  1
 Ta  Ta2  1  0.18880  0.67165  0.72048  1
 Ta  Ta3  1  0.88594  0.08851  0.16554  1
 Ta  Ta4  1  0.11406  0.91149  0.83446  1
