CIF file written using JARVIS-Tools package.
data_Sc5Cl8
_symmetry_space_group_name_H-M  'C2/m'
_cell_length_a       3.5623
_cell_length_b       9.32275
_cell_length_c       9.55847
_cell_angle_alpha    88.5712
_cell_angle_beta     79.2619
_cell_angle_gamma    78.9867

_symmetry_Int_Tables_number  12
_chemical_formula_structural  Sc5Cl8
_chemical_formula_sum  Sc5Cl8
_cell_volume  306.11973433722346
_cell_formula_units_Z  1
loop_
  _symmetry_equiv_pos_site_id
 _symmetry_equiv_pos_as_xyz
 1  'x, y, z'
loop_
 _atom_site_type_symbol
 _atom_site_label
 _atom_site_symmetry_multiplicity
 _atom_site_fract_x
 _atom_site_fract_y
 _atom_site_fract_z
 _atom_site_fract_occupancy
 Cl  Cl1  1  0.69832  0.18216  0.42119  1
 Cl  Cl2  1  0.30168  0.81784  0.57881  1
 Cl  Cl3  1  0.36491  0.16257  0.10762  1
 Cl  Cl4  1  0.63509  0.83743  0.89238  1
 Cl  Cl5  1  0.67322  0.47285  0.18072  1
 Cl  Cl6  1  0.32678  0.52715  0.81928  1
 Cl  Cl7  1  0.96683  0.84152  0.22484  1
 Cl  Cl8  1  0.03317  0.15848  0.77516  1
 Sc  Sc1  1  0.00000  0.00000  0.00000  1
 Sc  Sc2  1  0.51577  0.31893  0.64953  1
 Sc  Sc3  1  0.48423  0.68107  0.35047  1
 Sc  Sc4  1  0.12336  0.38545  0.36781  1
 Sc  Sc5  1  0.87664  0.61455  0.63219  1
