CIF file written using JARVIS-Tools package.
data_Al3Pb5F19
_symmetry_space_group_name_H-M  'I4/mcm'
_cell_length_a       7.32841
_cell_length_b       10.8282
_cell_length_c       10.8282
_cell_angle_alpha    83.4246
_cell_angle_beta     70.2209
_cell_angle_gamma    70.2209

_symmetry_Int_Tables_number  140
_chemical_formula_structural  Al3Pb5F19
_chemical_formula_sum  Al6Pb0F38
_cell_volume  760.8586021496558
_cell_formula_units_Z  2
loop_
  _symmetry_equiv_pos_site_id
 _symmetry_equiv_pos_as_xyz
 1  'x, y, z'
loop_
 _atom_site_type_symbol
 _atom_site_label
 _atom_site_symmetry_multiplicity
 _atom_site_fract_x
 _atom_site_fract_y
 _atom_site_fract_z
 _atom_site_fract_occupancy
 Al  Al1  1  0.66626  0.50000  0.16749  1
 Al  Al2  1  0.83374  0.83251  0.50000  1
 Al  Al3  1  0.33374  0.50000  0.83251  1
 Al  Al4  1  0.75000  0.00000  0.00000  1
 Al  Al5  1  0.25000  0.00000  -0.00000  1
 Al  Al6  1  0.16626  0.16749  0.50000  1
 F  F1  1  0.83890  0.00000  0.82220  1
 F  F2  1  0.92388  0.17840  0.62959  1
 F  F3  1  0.55346  0.37041  0.17840  1
 F  F4  1  0.57612  0.37041  0.82160  1
 F  F5  1  0.60228  0.82160  0.62959  1
 F  F6  1  0.83890  0.82220  -0.00000  1
 F  F7  1  0.16110  0.00000  0.17780  1
 F  F8  1  0.94654  0.82160  0.62959  1
 F  F9  1  0.75536  0.50000  0.98929  1
 F  F10  1  0.39772  0.17840  0.37041  1
 F  F11  1  0.24464  0.50000  0.01071  1
 F  F12  1  0.33890  0.82220  -0.00000  1
 F  F13  1  0.39396  0.71209  0.50000  1
 F  F14  1  0.00000  0.00000  0.00000  1
 F  F15  1  0.76814  0.62959  0.17840  1
 F  F16  1  0.10604  0.50000  0.28791  1
 F  F17  1  0.16110  0.17780  -0.00000  1
 F  F18  1  0.44654  0.62959  0.82160  1
 F  F19  1  0.66110  0.17780  -0.00000  1
 F  F20  1  0.25536  0.98929  0.50000  1
 F  F21  1  0.57666  0.50000  0.34669  1
 F  F22  1  0.92334  0.65331  0.50000  1
 F  F23  1  0.89772  0.37041  0.17840  1
 F  F24  1  0.10228  0.62959  0.82160  1
 F  F25  1  0.42334  0.50000  0.65331  1
 F  F26  1  0.42388  0.62959  0.17840  1
 F  F27  1  0.07612  0.82160  0.37041  1
 F  F28  1  0.89396  0.50000  0.71209  1
 F  F29  1  0.73186  0.82160  0.37041  1
 F  F30  1  0.26814  0.17840  0.62959  1
 F  F31  1  0.66110  0.00000  0.17780  1
 F  F32  1  0.23186  0.37041  0.82160  1
 F  F33  1  0.33890  0.00000  0.82220  1
 F  F34  1  0.05346  0.17840  0.37041  1
 F  F35  1  0.74464  0.01071  0.50000  1
 F  F36  1  0.60604  0.28791  0.50000  1
 F  F37  1  0.50000  0.00000  -0.00000  1
 F  F38  1  0.07666  0.34669  0.50000  1
 Pb  Pb1  1  0.77166  0.15822  0.29846  1
 Pb  Pb2  1  0.42988  0.84178  0.29846  1
 Pb  Pb3  1  0.57012  0.15822  0.70154  1
 Pb  Pb4  1  0.07012  0.70154  0.15822  1
 Pb  Pb5  1  0.22834  0.84178  0.70154  1
 Pb  Pb6  1  0.72834  0.70154  0.84178  1
 Pb  Pb7  1  0.75000  0.50000  0.50000  1
 Pb  Pb8  1  0.92988  0.29846  0.84178  1
 Pb  Pb9  1  0.25000  0.50000  0.50000  1
 Pb  Pb10  1  0.27166  0.29846  0.15822  1
