CIF file written using JARVIS-Tools package.
data_VCuO2
_symmetry_space_group_name_H-M  'R-3m'
_cell_length_a       2.96692
_cell_length_b       2.96606
_cell_length_c       6.12024
_cell_angle_alpha    104.023
_cell_angle_beta     90.0001
_cell_angle_gamma    120.01

_symmetry_Int_Tables_number  166
_chemical_formula_structural  VCuO2
_chemical_formula_sum  VCuO2
_cell_volume  44.77513901879161
_cell_formula_units_Z  1
loop_
  _symmetry_equiv_pos_site_id
 _symmetry_equiv_pos_as_xyz
 1  'x, y, z'
loop_
 _atom_site_type_symbol
 _atom_site_label
 _atom_site_symmetry_multiplicity
 _atom_site_fract_x
 _atom_site_fract_y
 _atom_site_fract_z
 _atom_site_fract_occupancy
 Cu  Cu1  1  0.00000  0.00000  0.50000  1
 O  O1  1  0.10565  0.21129  0.81704  1
 O  O2  1  0.89435  0.78871  0.18296  1
 V  V1  1  0.50000  0.00000  0.00000  1
