CIF file written using JARVIS-Tools package.
data_KO3
_symmetry_space_group_name_H-M  'Imm2'
_cell_length_a       4.12391
_cell_length_b       4.7091
_cell_length_c       4.7091
_cell_angle_alpha    75.4012
_cell_angle_beta     64.0323
_cell_angle_gamma    64.0322

_symmetry_Int_Tables_number  44
_chemical_formula_structural  KO3
_chemical_formula_sum  KO3
_cell_volume  73.71078337068252
_cell_formula_units_Z  1
loop_
  _symmetry_equiv_pos_site_id
 _symmetry_equiv_pos_as_xyz
 1  'x, y, z'
loop_
 _atom_site_type_symbol
 _atom_site_label
 _atom_site_symmetry_multiplicity
 _atom_site_fract_x
 _atom_site_fract_y
 _atom_site_fract_z
 _atom_site_fract_occupancy
 K  K1  1  0.50492  0.49508  0.49508  1
 O  O1  1  0.91674  0.88433  0.28219  1
 O  O2  1  0.03719  0.96281  0.96281  1
 O  O3  1  0.91674  0.28219  0.88433  1
