CIF file written using JARVIS-Tools package.
data_CrI2
_symmetry_space_group_name_H-M  'P6_3mc'
_cell_length_a       3.86609
_cell_length_b       3.8664
_cell_length_c       13.1755
_cell_angle_alpha    90
_cell_angle_beta     90
_cell_angle_gamma    119.997

_symmetry_Int_Tables_number  186
_chemical_formula_structural  CrI2
_chemical_formula_sum  Cr2I4
_cell_volume  170.5648944370912
_cell_formula_units_Z  2
loop_
  _symmetry_equiv_pos_site_id
 _symmetry_equiv_pos_as_xyz
 1  'x, y, z'
loop_
 _atom_site_type_symbol
 _atom_site_label
 _atom_site_symmetry_multiplicity
 _atom_site_fract_x
 _atom_site_fract_y
 _atom_site_fract_z
 _atom_site_fract_occupancy
 Cr  Cr1  1  0.66652  0.33304  0.62049  1
 Cr  Cr2  1  0.33348  0.66696  0.12049  1
 I  I1  1  -0.00014  -0.00029  0.50257  1
 I  I2  1  0.00014  0.00029  0.00257  1
 I  I3  1  0.33318  0.66637  0.73794  1
 I  I4  1  0.66682  0.33363  0.23794  1
