CIF file written using JARVIS-Tools package.
data_Li2CuNiP2O8
_symmetry_space_group_name_H-M  'P2_1/m'
_cell_length_a       4.70632
_cell_length_b       5.93706
_cell_length_c       10.0386
_cell_angle_alpha    90
_cell_angle_beta     90.8108
_cell_angle_gamma    90

_symmetry_Int_Tables_number  11
_chemical_formula_structural  Li2CuNiP2O8
_chemical_formula_sum  Li4Cu2Ni2P4O6
_cell_volume  280.4676715494766
_cell_formula_units_Z  2
loop_
  _symmetry_equiv_pos_site_id
 _symmetry_equiv_pos_as_xyz
 1  'x, y, z'
loop_
 _atom_site_type_symbol
 _atom_site_label
 _atom_site_symmetry_multiplicity
 _atom_site_fract_x
 _atom_site_fract_y
 _atom_site_fract_z
 _atom_site_fract_occupancy
 Cu  Cu1  1  0.96869  0.25000  0.27760  1
 Cu  Cu2  1  0.03131  0.75000  0.72240  1
 Li  Li1  1  0.00000  0.00000  0.00000  1
 Li  Li2  1  0.00000  0.50000  0.00000  1
 Li  Li3  1  0.50000  0.00000  0.50000  1
 Li  Li4  1  0.50000  0.50000  0.50000  1
 Ni  Ni1  1  0.48716  0.75000  0.22213  1
 Ni  Ni2  1  0.51284  0.25000  0.77787  1
 O  O1  1  0.74702  0.25000  0.09492  1
 O  O2  1  0.77317  0.95490  0.33242  1
 O  O3  1  0.77317  0.54510  0.33242  1
 O  O4  1  0.70861  0.75000  0.05110  1
 O  O5  1  0.28629  0.04003  0.16320  1
 O  O6  1  0.25298  0.75000  0.90508  1
 O  O7  1  0.19784  0.25000  0.45131  1
 O  O8  1  0.28629  0.45997  0.16320  1
 O  O9  1  0.80216  0.75000  0.54869  1
 O  O10  1  0.71371  0.54003  0.83680  1
 O  O11  1  0.22683  0.04510  0.66758  1
 O  O12  1  0.22683  0.45490  0.66758  1
 O  O13  1  0.24533  0.75000  0.40155  1
 O  O14  1  0.71371  0.95997  0.83680  1
 O  O15  1  0.75467  0.25000  0.59845  1
 O  O16  1  0.29139  0.25000  0.94890  1
 P  P1  1  0.42066  0.25000  0.09291  1
 P  P2  1  0.92024  0.75000  0.40494  1
 P  P3  1  0.07976  0.25000  0.59506  1
 P  P4  1  0.57934  0.75000  0.90709  1
