CIF file written using JARVIS-Tools package.
data_TmGe
_symmetry_space_group_name_H-M  'Cmcm'
_cell_length_a       3.93252
_cell_length_b       4.18219
_cell_length_c       5.68613
_cell_angle_alpha    111.577
_cell_angle_beta     90
_cell_angle_gamma    90

_symmetry_Int_Tables_number  63
_chemical_formula_structural  TmGe
_chemical_formula_sum  Tm2Ge2
_cell_volume  86.96380369309361
_cell_formula_units_Z  2
loop_
  _symmetry_equiv_pos_site_id
 _symmetry_equiv_pos_as_xyz
 1  'x, y, z'
loop_
 _atom_site_type_symbol
 _atom_site_label
 _atom_site_symmetry_multiplicity
 _atom_site_fract_x
 _atom_site_fract_y
 _atom_site_fract_z
 _atom_site_fract_occupancy
 Ge  Ge1  1  0.25000  0.41039  0.82078  1
 Ge  Ge2  1  0.75000  0.58961  0.17922  1
 Tm  Tm1  1  0.25000  0.13720  0.27440  1
 Tm  Tm2  1  0.75000  0.86280  0.72560  1
