CIF file written using JARVIS-Tools package.
data_LiCo2CuO6
_symmetry_space_group_name_H-M  'Cm'
_cell_length_a       6.59385
_cell_length_b       2.80935
_cell_length_c       5.62405
_cell_angle_alpha    90
_cell_angle_beta     101.514
_cell_angle_gamma    77.7002

_symmetry_Int_Tables_number  8
_chemical_formula_structural  LiCo2CuO6
_chemical_formula_sum  LiCo2CuO6
_cell_volume  99.6439912888847
_cell_formula_units_Z  1
loop_
  _symmetry_equiv_pos_site_id
 _symmetry_equiv_pos_as_xyz
 1  'x, y, z'
loop_
 _atom_site_type_symbol
 _atom_site_label
 _atom_site_symmetry_multiplicity
 _atom_site_fract_x
 _atom_site_fract_y
 _atom_site_fract_z
 _atom_site_fract_occupancy
 Co  Co1  1  -0.00166  0.00083  0.00075  1
 Co  Co2  1  0.68980  0.65510  0.64868  1
 Cu  Cu1  1  0.31871  0.34064  0.36627  1
 Li  Li1  1  0.63754  0.68123  0.13750  1
 O  O1  1  0.96724  0.51638  0.20263  1
 O  O2  1  0.39201  0.80399  0.59024  1
 O  O3  1  0.69788  0.15106  0.88172  1
 O  O4  1  0.29204  0.85398  0.13202  1
 O  O5  1  0.68489  0.15755  0.43333  1
 O  O6  1  0.98821  0.50589  0.77354  1
