CIF file written using JARVIS-Tools package.
data_SnO2
_symmetry_space_group_name_H-M  'R-3m'
_cell_length_a       3.24719
_cell_length_b       3.24717
_cell_length_c       9.52807
_cell_angle_alpha    70.0719
_cell_angle_beta     89.9943
_cell_angle_gamma    119.999

_symmetry_Int_Tables_number  166
_chemical_formula_structural  SnO2
_chemical_formula_sum  Sn2O4
_cell_volume  79.98256678155194
_cell_formula_units_Z  2
loop_
  _symmetry_equiv_pos_site_id
 _symmetry_equiv_pos_as_xyz
 1  'x, y, z'
loop_
 _atom_site_type_symbol
 _atom_site_label
 _atom_site_symmetry_multiplicity
 _atom_site_fract_x
 _atom_site_fract_y
 _atom_site_fract_z
 _atom_site_fract_occupancy
 O  O1  1  0.74016  0.48456  0.38834  1
 O  O2  1  0.58895  0.18206  0.11546  1
 O  O3  1  0.25509  0.51451  0.61580  1
 O  O4  1  0.40691  0.81784  0.88870  1
 Sn  Sn1  1  0.99763  0.99953  0.50207  1
 Sn  Sn2  1  0.99793  -0.00005  0.00208  1
