CIF file written using JARVIS-Tools package.
data_AlCrO4
_symmetry_space_group_name_H-M  'Cmm2'
_cell_length_a       4.3887
_cell_length_b       5.26366
_cell_length_c       4.38864
_cell_angle_alpha    87.9541
_cell_angle_beta     92.4539
_cell_angle_gamma    146.488

_symmetry_Int_Tables_number  35
_chemical_formula_structural  AlCrO4
_chemical_formula_sum  AlCrO4
_cell_volume  55.92264528274353
_cell_formula_units_Z  1
loop_
  _symmetry_equiv_pos_site_id
 _symmetry_equiv_pos_as_xyz
 1  'x, y, z'
loop_
 _atom_site_type_symbol
 _atom_site_label
 _atom_site_symmetry_multiplicity
 _atom_site_fract_x
 _atom_site_fract_y
 _atom_site_fract_z
 _atom_site_fract_occupancy
 Al  Al1  1  0.48685  0.98419  0.50088  1
 Cr  Cr1  1  0.56249  0.55984  0.00087  1
 O  O1  1  0.19623  0.99661  0.80384  1
 O  O2  1  0.18494  0.47933  0.70385  1
 O  O3  1  0.80223  0.99661  0.19786  1
 O  O4  1  0.77899  0.47933  0.29788  1
