CIF file written using JARVIS-Tools package.
data_Na4Ni3O7
_symmetry_space_group_name_H-M  'R-3'
_cell_length_a       6.91992
_cell_length_b       6.91992
_cell_length_c       6.91992
_cell_angle_alpha    69.7887
_cell_angle_beta     69.7886
_cell_angle_gamma    69.7887

_symmetry_Int_Tables_number  148
_chemical_formula_structural  Na4Ni3O7
_chemical_formula_sum  Na8Ni6O4
_cell_volume  282.02758595629655
_cell_formula_units_Z  2
loop_
  _symmetry_equiv_pos_site_id
 _symmetry_equiv_pos_as_xyz
 1  'x, y, z'
loop_
 _atom_site_type_symbol
 _atom_site_label
 _atom_site_symmetry_multiplicity
 _atom_site_fract_x
 _atom_site_fract_y
 _atom_site_fract_z
 _atom_site_fract_occupancy
 Na  Na1  1  0.91416  0.35877  0.21128  1
 Na  Na2  1  0.78734  0.06843  0.62844  1
 Na  Na3  1  0.64586  0.80013  0.06980  1
 Na  Na4  1  0.57143  0.14286  0.28571  1
 Na  Na5  1  0.49700  0.48558  0.50163  1
 Na  Na6  1  0.35552  0.21729  0.94299  1
 Na  Na7  1  0.22870  0.92695  0.36014  1
 Na  Na8  1  0.07143  0.64286  0.78571  1
 Ni  Ni1  1  0.86045  0.71226  0.42905  1
 Ni  Ni2  1  0.71477  0.43188  0.85511  1
 Ni  Ni3  1  0.00203  0.99952  0.99670  1
 Ni  Ni4  1  0.28241  0.57346  0.14237  1
 Ni  Ni5  1  0.14083  0.28620  0.57473  1
 Ni  Ni6  1  0.42809  0.85384  0.71632  1
 O  O1  1  0.12068  0.98162  0.70260  1
 O  O2  1  0.98831  0.69211  0.12448  1
 O  O3  1  0.90900  0.99597  0.29503  1
 O  O4  1  0.84364  0.41507  0.55792  1
 O  O5  1  0.58074  0.48043  0.13882  1
 O  O6  1  0.71832  0.13355  0.94815  1
 O  O7  1  0.23386  0.28975  0.27640  1
 O  O8  1  0.73266  0.72598  0.73646  1
 O  O9  1  0.42454  0.15217  0.62328  1
 O  O10  1  0.41019  0.55974  0.83497  1
 O  O11  1  0.15455  0.59360  0.44695  1
 O  O12  1  0.56212  0.80529  0.43261  1
 O  O13  1  0.29922  0.87065  0.01350  1
 O  O14  1  0.02217  0.30409  0.86883  1
