CIF file written using JARVIS-Tools package.
data_TiMnH12O6F6
_symmetry_space_group_name_H-M  'R-3'
_cell_length_a       6.52589
_cell_length_b       6.52589
_cell_length_c       6.52589
_cell_angle_alpha    96.9949
_cell_angle_beta     96.9949
_cell_angle_gamma    96.9949

_symmetry_Int_Tables_number  148
_chemical_formula_structural  TiMnH12O6F6
_chemical_formula_sum  TiMnH2O6F6
_cell_volume  271.1532560857177
_cell_formula_units_Z  1
loop_
  _symmetry_equiv_pos_site_id
 _symmetry_equiv_pos_as_xyz
 1  'x, y, z'
loop_
 _atom_site_type_symbol
 _atom_site_label
 _atom_site_symmetry_multiplicity
 _atom_site_fract_x
 _atom_site_fract_y
 _atom_site_fract_z
 _atom_site_fract_occupancy
 F  F1  1  0.62180  0.45050  0.76647  1
 F  F2  1  0.76647  0.62180  0.45049  1
 F  F3  1  0.54950  0.23353  0.37820  1
 F  F4  1  0.37820  0.54950  0.23353  1
 F  F5  1  0.45050  0.76647  0.62180  1
 F  F6  1  0.23353  0.37820  0.54950  1
 H  H1  1  0.02418  0.29117  0.35257  1
 H  H2  1  0.29117  0.35257  0.02418  1
 H  H3  1  0.78263  0.21995  0.27623  1
 H  H4  1  0.70883  0.64743  0.97582  1
 H  H5  1  0.27623  0.78263  0.21995  1
 H  H6  1  0.21995  0.27623  0.78263  1
 H  H7  1  0.35257  0.02418  0.29117  1
 H  H8  1  0.64743  0.97582  0.70883  1
 H  H9  1  0.97582  0.70883  0.64743  1
 H  H10  1  0.72377  0.21737  0.78005  1
 H  H11  1  0.21737  0.78005  0.72377  1
 H  H12  1  0.78005  0.72377  0.21737  1
 Mn  Mn1  1  0.00000  0.00000  0.00000  1
 O  O1  1  0.23388  0.22908  0.92114  1
 O  O2  1  0.07886  0.76612  0.77092  1
 O  O3  1  0.77092  0.07886  0.76612  1
 O  O4  1  0.22908  0.92114  0.23388  1
 O  O5  1  0.76612  0.77092  0.07886  1
 O  O6  1  0.92114  0.23388  0.22908  1
 Ti  Ti1  1  0.50000  0.50000  0.50000  1
