CIF file written using JARVIS-Tools package.
data_CdHgAsBr
_symmetry_space_group_name_H-M  'Pmma'
_cell_length_a       4.77516
_cell_length_b       11.0712
_cell_length_c       9.61711
_cell_angle_alpha    90
_cell_angle_beta     90
_cell_angle_gamma    90

_symmetry_Int_Tables_number  51
_chemical_formula_structural  CdHgAsBr
_chemical_formula_sum  Cd4Hg4As4Br4
_cell_volume  508.42490156039173
_cell_formula_units_Z  4
loop_
  _symmetry_equiv_pos_site_id
 _symmetry_equiv_pos_as_xyz
 1  'x, y, z'
loop_
 _atom_site_type_symbol
 _atom_site_label
 _atom_site_symmetry_multiplicity
 _atom_site_fract_x
 _atom_site_fract_y
 _atom_site_fract_z
 _atom_site_fract_occupancy
 As  As1  1  0.50000  0.02087  0.73543  1
 As  As2  1  0.50000  0.97913  0.26457  1
 As  As3  1  0.50000  0.47913  0.73543  1
 As  As4  1  0.50000  0.52087  0.26457  1
 Br  Br1  1  0.00000  0.25000  0.48959  1
 Br  Br2  1  0.00000  0.75000  0.51041  1
 Br  Br3  1  0.00000  0.75000  0.92872  1
 Br  Br4  1  0.00000  0.25000  0.07128  1
 Cd  Cd1  1  0.00000  0.92476  0.71311  1
 Cd  Cd2  1  0.00000  0.57524  0.71311  1
 Cd  Cd3  1  0.00000  0.07524  0.28689  1
 Cd  Cd4  1  0.00000  0.42476  0.28689  1
 Hg  Hg1  1  0.50000  0.25000  0.73171  1
 Hg  Hg2  1  0.50000  0.75000  0.26829  1
 Hg  Hg3  1  0.50000  0.50000  0.00000  1
 Hg  Hg4  1  0.50000  0.00000  0.00000  1
