CIF file written using JARVIS-Tools package.
data_Li5Si2NiO8
_symmetry_space_group_name_H-M  'C2'
_cell_length_a       5.18713
_cell_length_b       5.18713
_cell_length_c       6.22498
_cell_angle_alpha    90.3776
_cell_angle_beta     89.6224
_cell_angle_gamma    89.246

_symmetry_Int_Tables_number  5
_chemical_formula_structural  Li5Si2NiO8
_chemical_formula_sum  Li5Si2NiO8
_cell_volume  167.4691036556398
_cell_formula_units_Z  1
loop_
  _symmetry_equiv_pos_site_id
 _symmetry_equiv_pos_as_xyz
 1  'x, y, z'
loop_
 _atom_site_type_symbol
 _atom_site_label
 _atom_site_symmetry_multiplicity
 _atom_site_fract_x
 _atom_site_fract_y
 _atom_site_fract_z
 _atom_site_fract_occupancy
 Li  Li1  1  0.17251  0.79295  0.49091  1
 Li  Li2  1  0.69216  0.69216  0.75000  1
 Li  Li3  1  0.33138  0.33138  0.25000  1
 Li  Li4  1  0.68119  0.68119  0.25000  1
 Li  Li5  1  0.79295  0.17251  0.00909  1
 Ni  Ni1  1  0.32225  0.32225  0.75000  1
 O  O1  1  0.30353  0.68854  0.77995  1
 O  O2  1  0.30461  0.69967  0.21678  1
 O  O3  1  0.13923  0.22533  0.50949  1
 O  O4  1  0.80120  0.85848  0.50106  1
 O  O5  1  0.22533  0.13923  0.99051  1
 O  O6  1  0.85848  0.80120  0.99894  1
 O  O7  1  0.68854  0.30353  0.72005  1
 O  O8  1  0.69967  0.30461  0.28322  1
 Si  Si1  1  0.17017  0.81682  0.00463  1
 Si  Si2  1  0.81682  0.17017  0.49537  1
