CIF file written using JARVIS-Tools package.
data_H4INO4
_symmetry_space_group_name_H-M  'I4_1/a'
_cell_length_a       6.0614
_cell_length_b       6.0614
_cell_length_c       7.49963
_cell_angle_alpha    113.836
_cell_angle_beta     113.836
_cell_angle_gamma    90

_symmetry_Int_Tables_number  88
_chemical_formula_structural  H4INO4
_chemical_formula_sum  H8I2N2O8
_cell_volume  226.10905288776652
_cell_formula_units_Z  2
loop_
  _symmetry_equiv_pos_site_id
 _symmetry_equiv_pos_as_xyz
 1  'x, y, z'
loop_
 _atom_site_type_symbol
 _atom_site_label
 _atom_site_symmetry_multiplicity
 _atom_site_fract_x
 _atom_site_fract_y
 _atom_site_fract_z
 _atom_site_fract_occupancy
 H  H1  1  0.64169  0.05930  0.34898  1
 H  H2  1  0.28968  0.14169  0.84898  1
 H  H3  1  0.55930  0.20730  0.84898  1
 H  H4  1  0.70730  0.78968  0.34898  1
 H  H5  1  0.35831  0.94070  0.65102  1
 H  H6  1  0.71032  0.85831  0.15102  1
 H  H7  1  0.44070  0.79270  0.15102  1
 H  H8  1  0.29270  0.21032  0.65102  1
 I  I1  1  0.12500  0.37500  0.25000  1
 I  I2  1  0.87500  0.62500  0.75000  1
 N  N1  1  0.37500  0.12500  0.75000  1
 N  N2  1  0.62500  0.87500  0.25000  1
 O  O1  1  0.92862  0.74945  0.58690  1
 O  O2  1  0.65828  0.33745  0.58690  1
 O  O3  1  0.34172  0.66255  0.41310  1
 O  O4  1  0.07138  0.25055  0.41310  1
 O  O5  1  0.75055  0.84172  0.91310  1
 O  O6  1  0.83745  0.42862  0.08690  1
 O  O7  1  0.24945  0.15828  0.08690  1
 O  O8  1  0.16255  0.57138  0.91310  1
