CIF file written using JARVIS-Tools package.
data_MoO3
_symmetry_space_group_name_H-M  'Pna2_1'
_cell_length_a       5.54129
_cell_length_b       9.09949
_cell_length_c       5.34583
_cell_angle_alpha    90
_cell_angle_beta     90
_cell_angle_gamma    52.4913

_symmetry_Int_Tables_number  33
_chemical_formula_structural  MoO3
_chemical_formula_sum  Mo4O2
_cell_volume  213.82571307683648
_cell_formula_units_Z  4
loop_
  _symmetry_equiv_pos_site_id
 _symmetry_equiv_pos_as_xyz
 1  'x, y, z'
loop_
 _atom_site_type_symbol
 _atom_site_label
 _atom_site_symmetry_multiplicity
 _atom_site_fract_x
 _atom_site_fract_y
 _atom_site_fract_z
 _atom_site_fract_occupancy
 Mo  Mo1  1  0.73204  0.99789  0.99314  1
 Mo  Mo2  1  0.23204  0.99789  0.50686  1
 Mo  Mo3  1  0.88958  0.49789  0.49312  1
 Mo  Mo4  1  0.38958  0.49789  0.00688  1
 O  O1  1  0.08213  0.46096  0.21357  1
 O  O2  1  0.58213  0.46096  0.28643  1
 O  O3  1  0.44893  0.04758  0.20118  1
 O  O4  1  0.94893  0.04758  0.29882  1
 O  O5  1  0.53946  0.75395  0.42052  1
 O  O6  1  0.03946  0.75395  0.07948  1
 O  O7  1  0.57343  0.54760  0.79899  1
 O  O8  1  0.07343  0.54760  0.70101  1
 O  O9  1  0.07001  0.25396  0.57952  1
 O  O10  1  0.57001  0.25396  0.92048  1
 O  O11  1  0.61321  0.96097  0.71366  1
 O  O12  1  0.11321  0.96097  0.78634  1
