CIF file written using JARVIS-Tools package.
data_Li3FeSiBO7
_symmetry_space_group_name_H-M  'P2_1/m'
_cell_length_a       4.99595
_cell_length_b       6.15146
_cell_length_c       8.27484
_cell_angle_alpha    90
_cell_angle_beta     95.896
_cell_angle_gamma    90

_symmetry_Int_Tables_number  11
_chemical_formula_structural  Li3FeSiBO7
_chemical_formula_sum  Li6Fe2Si2B2O4
_cell_volume  252.96014808317148
_cell_formula_units_Z  2
loop_
  _symmetry_equiv_pos_site_id
 _symmetry_equiv_pos_as_xyz
 1  'x, y, z'
loop_
 _atom_site_type_symbol
 _atom_site_label
 _atom_site_symmetry_multiplicity
 _atom_site_fract_x
 _atom_site_fract_y
 _atom_site_fract_z
 _atom_site_fract_occupancy
 B  B1  1  0.29211  0.25000  0.03807  1
 B  B2  1  0.70789  0.75000  0.96193  1
 Fe  Fe1  1  0.20075  0.25000  0.31448  1
 Fe  Fe2  1  0.79925  0.75000  0.68552  1
 Li  Li1  1  0.23743  0.75000  0.10384  1
 Li  Li2  1  0.74715  0.00241  0.24795  1
 Li  Li3  1  0.74715  0.49759  0.24795  1
 Li  Li4  1  0.25285  0.50241  0.75205  1
 Li  Li5  1  0.25285  0.99759  0.75205  1
 Li  Li6  1  0.76257  0.25000  0.89616  1
 O  O1  1  0.18106  0.55155  0.30085  1
 O  O2  1  0.18106  0.94845  0.30085  1
 O  O3  1  0.96759  0.75000  0.91325  1
 O  O4  1  0.03241  0.25000  0.08675  1
 O  O5  1  0.63626  0.75000  0.11377  1
 O  O6  1  0.48033  0.25000  0.17642  1
 O  O7  1  0.86925  0.25000  0.40409  1
 O  O8  1  0.51967  0.75000  0.82358  1
 O  O9  1  0.39621  0.25000  0.52261  1
 O  O10  1  0.81894  0.44845  0.69915  1
 O  O11  1  0.81894  0.05155  0.69915  1
 O  O12  1  0.60379  0.75000  0.47739  1
 O  O13  1  0.13075  0.75000  0.59591  1
 O  O14  1  0.36374  0.25000  0.88623  1
 Si  Si1  1  0.27493  0.75000  0.42902  1
 Si  Si2  1  0.72507  0.25000  0.57098  1
