CIF file written using JARVIS-Tools package.
data_TbFeC2
_symmetry_space_group_name_H-M  'Amm2'
_cell_length_a       3.65741
_cell_length_b       3.73226
_cell_length_c       3.73226
_cell_angle_alpha    105.233
_cell_angle_beta     90
_cell_angle_gamma    90

_symmetry_Int_Tables_number  38
_chemical_formula_structural  TbFeC2
_chemical_formula_sum  TbFeC2
_cell_volume  49.15709692881658
_cell_formula_units_Z  1
loop_
  _symmetry_equiv_pos_site_id
 _symmetry_equiv_pos_as_xyz
 1  'x, y, z'
loop_
 _atom_site_type_symbol
 _atom_site_label
 _atom_site_symmetry_multiplicity
 _atom_site_fract_x
 _atom_site_fract_y
 _atom_site_fract_z
 _atom_site_fract_occupancy
 C  C1  1  0.50000  0.85516  0.45285  1
 C  C2  1  0.50000  0.54715  0.14484  1
 Fe  Fe1  1  0.50000  0.38591  0.61409  1
 Tb  Tb1  1  0.00000  0.99679  0.00321  1
