CIF file written using JARVIS-Tools package.
data_P2O3
_symmetry_space_group_name_H-M  'P2_1/m'
_cell_length_a       6.23006
_cell_length_b       7.7084
_cell_length_c       6.66102
_cell_angle_alpha    90
_cell_angle_beta     108.027
_cell_angle_gamma    90

_symmetry_Int_Tables_number  11
_chemical_formula_structural  P2O3
_chemical_formula_sum  P8O2
_cell_volume  304.18530431197286
_cell_formula_units_Z  4
loop_
  _symmetry_equiv_pos_site_id
 _symmetry_equiv_pos_as_xyz
 1  'x, y, z'
loop_
 _atom_site_type_symbol
 _atom_site_label
 _atom_site_symmetry_multiplicity
 _atom_site_fract_x
 _atom_site_fract_y
 _atom_site_fract_z
 _atom_site_fract_occupancy
 O  O1  1  0.46637  0.75000  0.44618  1
 O  O2  1  0.18094  0.25000  0.01578  1
 O  O3  1  0.46937  0.58494  0.77715  1
 O  O4  1  0.81787  0.91514  0.65394  1
 O  O5  1  0.18213  0.41514  0.34606  1
 O  O6  1  0.81906  0.75000  0.98422  1
 O  O7  1  0.81787  0.58486  0.65394  1
 O  O8  1  0.46937  0.91506  0.77715  1
 O  O9  1  0.53063  0.41506  0.22285  1
 O  O10  1  0.53063  0.08494  0.22285  1
 O  O11  1  0.53363  0.25000  0.55382  1
 O  O12  1  0.18213  0.08486  0.34606  1
 P  P1  1  0.74576  0.75000  0.48377  1
 P  P2  1  0.25424  0.25000  0.51623  1
 P  P3  1  0.33531  0.75000  0.62894  1
 P  P4  1  0.66469  0.25000  0.37106  1
 P  P5  1  0.74905  0.55659  0.87400  1
 P  P6  1  0.25095  0.05659  0.12600  1
 P  P7  1  0.25095  0.44341  0.12600  1
 P  P8  1  0.74905  0.94341  0.87400  1
