CIF file written using JARVIS-Tools package.
data_CoMoH2SeO7
_symmetry_space_group_name_H-M  'P-1'
_cell_length_a       4.95826
_cell_length_b       6.58091
_cell_length_c       8.81209
_cell_angle_alpha    91.8663
_cell_angle_beta     97.3124
_cell_angle_gamma    110.371

_symmetry_Int_Tables_number  2
_chemical_formula_structural  CoMoH2SeO7
_chemical_formula_sum  Co2Mo2H4Se2O4
_cell_volume  266.4466293687067
_cell_formula_units_Z  2
loop_
  _symmetry_equiv_pos_site_id
 _symmetry_equiv_pos_as_xyz
 1  'x, y, z'
loop_
 _atom_site_type_symbol
 _atom_site_label
 _atom_site_symmetry_multiplicity
 _atom_site_fract_x
 _atom_site_fract_y
 _atom_site_fract_z
 _atom_site_fract_occupancy
 Co  Co1  1  0.50000  0.00000  0.00000  1
 Co  Co2  1  -0.00000  0.50000  0.50000  1
 H  H1  1  0.61623  0.14085  0.35609  1
 H  H2  1  0.45405  0.24745  0.48030  1
 H  H3  1  0.54595  0.75255  0.51970  1
 H  H4  1  0.38377  0.85915  0.64391  1
 Mo  Mo1  1  0.20663  0.40580  0.10535  1
 Mo  Mo2  1  0.79337  0.59420  0.89465  1
 O  O1  1  0.16825  0.69564  0.01279  1
 O  O2  1  0.73039  0.84234  0.89685  1
 O  O3  1  0.63978  0.58551  0.13094  1
 O  O4  1  0.66427  0.97931  0.22349  1
 O  O5  1  0.14348  0.46158  0.28958  1
 O  O6  1  0.26961  0.15766  0.10315  1
 O  O7  1  0.80377  0.73048  0.43438  1
 O  O8  1  0.33573  0.02069  0.77651  1
 O  O9  1  0.36448  0.74291  0.56291  1
 O  O10  1  0.85652  0.53842  0.71042  1
 O  O11  1  0.63552  0.25709  0.43709  1
 O  O12  1  0.36022  0.41449  0.86906  1
 O  O13  1  0.19623  0.26952  0.56562  1
 O  O14  1  0.83175  0.30436  0.98721  1
 Se  Se1  1  0.12633  0.17776  0.73958  1
 Se  Se2  1  0.87367  0.82224  0.26042  1
