CIF file written using JARVIS-Tools package.
data_Li2VBPO7
_symmetry_space_group_name_H-M  'P2_1/m'
_cell_length_a       5.17399
_cell_length_b       6.14738
_cell_length_c       8.69561
_cell_angle_alpha    90
_cell_angle_beta     92.9154
_cell_angle_gamma    90

_symmetry_Int_Tables_number  11
_chemical_formula_structural  Li2VBPO7
_chemical_formula_sum  Li4V2B2P2O4
_cell_volume  276.2190228367523
_cell_formula_units_Z  2
loop_
  _symmetry_equiv_pos_site_id
 _symmetry_equiv_pos_as_xyz
 1  'x, y, z'
loop_
 _atom_site_type_symbol
 _atom_site_label
 _atom_site_symmetry_multiplicity
 _atom_site_fract_x
 _atom_site_fract_y
 _atom_site_fract_z
 _atom_site_fract_occupancy
 B  B1  1  0.25696  0.25000  0.05066  1
 B  B2  1  0.74304  0.75000  0.94934  1
 Li  Li1  1  0.74406  0.47353  0.19306  1
 Li  Li2  1  0.74406  0.02647  0.19306  1
 Li  Li3  1  0.25594  0.52647  0.80694  1
 Li  Li4  1  0.25594  0.97353  0.80694  1
 O  O1  1  0.71551  0.75000  0.09909  1
 O  O2  1  0.98024  0.75000  0.87164  1
 O  O3  1  0.45912  0.25000  0.16948  1
 O  O4  1  0.20092  0.94744  0.33940  1
 O  O5  1  0.20092  0.55256  0.33940  1
 O  O6  1  0.01976  0.25000  0.12836  1
 O  O7  1  0.58405  0.75000  0.46967  1
 O  O8  1  0.41595  0.25000  0.53033  1
 O  O9  1  0.79908  0.05256  0.66060  1
 O  O10  1  0.79908  0.44744  0.66060  1
 O  O11  1  0.84536  0.25000  0.40690  1
 O  O12  1  0.54088  0.75000  0.83052  1
 O  O13  1  0.15464  0.75000  0.59310  1
 O  O14  1  0.28449  0.25000  0.90091  1
 P  P1  1  0.71029  0.25000  0.56036  1
 P  P2  1  0.28971  0.75000  0.43964  1
 V  V1  1  0.79575  0.75000  0.67636  1
 V  V2  1  0.20425  0.25000  0.32364  1
