CIF file written using JARVIS-Tools package.
data_LiSnCl3
_symmetry_space_group_name_H-M  'R3m'
_cell_length_a       5.02123
_cell_length_b       5.0218
_cell_length_c       5.0238
_cell_angle_alpha    87.917
_cell_angle_beta     87.9206
_cell_angle_gamma    87.9339

_symmetry_Int_Tables_number  160
_chemical_formula_structural  LiSnCl3
_chemical_formula_sum  LiSnCl3
_cell_volume  126.43470083863274
_cell_formula_units_Z  1
loop_
  _symmetry_equiv_pos_site_id
 _symmetry_equiv_pos_as_xyz
 1  'x, y, z'
loop_
 _atom_site_type_symbol
 _atom_site_label
 _atom_site_symmetry_multiplicity
 _atom_site_fract_x
 _atom_site_fract_y
 _atom_site_fract_z
 _atom_site_fract_occupancy
 Cl  Cl1  1  0.13695  0.63711  0.13919  1
 Cl  Cl2  1  0.13707  0.14900  0.62718  1
 Cl  Cl3  1  0.62511  0.14906  0.13913  1
 Li  Li1  1  0.11009  0.12204  0.11183  1
 Sn  Sn1  1  0.49078  0.50280  0.49267  1
