CIF file written using JARVIS-Tools package.
data_LiMn5O3F5
_symmetry_space_group_name_H-M  'R3m'
_cell_length_a       6.33139
_cell_length_b       6.34955
_cell_length_c       6.34955
_cell_angle_alpha    60
_cell_angle_beta     59.9051
_cell_angle_gamma    59.9051

_symmetry_Int_Tables_number  160
_chemical_formula_structural  LiMn5O3F5
_chemical_formula_sum  LiMn5O3F5
_cell_volume  180.23799190722826
_cell_formula_units_Z  1
loop_
  _symmetry_equiv_pos_site_id
 _symmetry_equiv_pos_as_xyz
 1  'x, y, z'
loop_
 _atom_site_type_symbol
 _atom_site_label
 _atom_site_symmetry_multiplicity
 _atom_site_fract_x
 _atom_site_fract_y
 _atom_site_fract_z
 _atom_site_fract_occupancy
 F  F1  1  0.87898  0.37367  0.37367  1
 F  F2  1  0.38830  0.38088  0.38088  1
 F  F3  1  0.38830  0.84994  0.38088  1
 F  F4  1  0.38830  0.38088  0.84994  1
 F  F5  1  0.37462  0.87513  0.87513  1
 Li  Li1  1  0.26412  0.24529  0.24529  1
 Mn  Mn1  1  0.95148  0.01617  0.01617  1
 Mn  Mn2  1  0.64656  0.11107  0.62118  1
 Mn  Mn3  1  0.64656  0.62118  0.11107  1
 Mn  Mn4  1  0.10501  0.63166  0.63166  1
 Mn  Mn5  1  0.64656  0.62118  0.62118  1
 O  O1  1  0.85707  0.40567  0.86863  1
 O  O2  1  0.85707  0.86863  0.40567  1
 O  O3  1  0.85707  0.86863  0.86863  1
