CIF file written using JARVIS-Tools package.
data_Li2ScPCO7
_symmetry_space_group_name_H-M  'P2_1/m'
_cell_length_a       4.80583
_cell_length_b       6.5281
_cell_length_c       8.78227
_cell_angle_alpha    90
_cell_angle_beta     92.9795
_cell_angle_gamma    90

_symmetry_Int_Tables_number  11
_chemical_formula_structural  Li2ScPCO7
_chemical_formula_sum  Li4Sc2P2C2O4
_cell_volume  275.1531141219322
_cell_formula_units_Z  2
loop_
  _symmetry_equiv_pos_site_id
 _symmetry_equiv_pos_as_xyz
 1  'x, y, z'
loop_
 _atom_site_type_symbol
 _atom_site_label
 _atom_site_symmetry_multiplicity
 _atom_site_fract_x
 _atom_site_fract_y
 _atom_site_fract_z
 _atom_site_fract_occupancy
 C  C1  1  0.26109  0.25000  0.06236  1
 C  C2  1  0.73891  0.75000  0.93764  1
 Li  Li1  1  0.78988  0.00068  0.19965  1
 Li  Li2  1  0.78988  0.49932  0.19965  1
 Li  Li3  1  0.21012  0.50068  0.80035  1
 Li  Li4  1  0.21012  -0.00068  0.80035  1
 O  O1  1  0.70967  0.75000  0.08022  1
 O  O2  1  0.98133  0.75000  0.87711  1
 O  O3  1  0.47497  0.25000  0.16236  1
 O  O4  1  0.16703  0.94110  0.32431  1
 O  O5  1  0.16703  0.55890  0.32431  1
 O  O6  1  0.01867  0.25000  0.12289  1
 O  O7  1  0.60512  0.75000  0.41651  1
 O  O8  1  0.39488  0.25000  0.58349  1
 O  O9  1  0.83297  0.05890  0.67569  1
 O  O10  1  0.83297  0.44110  0.67569  1
 O  O11  1  0.80235  0.25000  0.42179  1
 O  O12  1  0.52503  0.75000  0.83764  1
 O  O13  1  0.19765  0.75000  0.57821  1
 O  O14  1  0.29033  0.25000  0.91978  1
 P  P1  1  0.71971  0.25000  0.59141  1
 P  P2  1  0.28029  0.75000  0.40859  1
 Sc  Sc1  1  0.76615  0.75000  0.64092  1
 Sc  Sc2  1  0.23385  0.25000  0.35908  1
