CIF file written using JARVIS-Tools package.
data_Hg3AsSe4I
_symmetry_space_group_name_H-M  'P6_3mc'
_cell_length_a       7.86532
_cell_length_b       7.86532
_cell_length_c       9.99127
_cell_angle_alpha    90
_cell_angle_beta     90
_cell_angle_gamma    120

_symmetry_Int_Tables_number  186
_chemical_formula_structural  Hg3AsSe4I
_chemical_formula_sum  Hg6As2Se8I2
_cell_volume  535.283658231702
_cell_formula_units_Z  2
loop_
  _symmetry_equiv_pos_site_id
 _symmetry_equiv_pos_as_xyz
 1  'x, y, z'
loop_
 _atom_site_type_symbol
 _atom_site_label
 _atom_site_symmetry_multiplicity
 _atom_site_fract_x
 _atom_site_fract_y
 _atom_site_fract_z
 _atom_site_fract_occupancy
 As  As1  1  0.00000  0.00000  0.23145  1
 As  As2  1  0.00000  0.00000  0.73145  1
 Hg  Hg1  1  0.49674  0.99347  0.24292  1
 Hg  Hg2  1  0.50326  0.00653  0.74292  1
 Hg  Hg3  1  0.00653  0.50326  0.24292  1
 Hg  Hg4  1  0.99347  0.49674  0.74292  1
 Hg  Hg5  1  0.49674  0.50326  0.24292  1
 Hg  Hg6  1  0.50326  0.49674  0.74292  1
 I  I1  1  0.66667  0.33333  0.02171  1
 I  I2  1  0.33333  0.66667  0.52171  1
 Se  Se1  1  0.66667  0.33333  0.60302  1
 Se  Se2  1  0.15057  0.84943  0.86656  1
 Se  Se3  1  0.33333  0.66667  0.10302  1
 Se  Se4  1  0.30113  0.15057  0.36656  1
 Se  Se5  1  0.84943  0.15057  0.36656  1
 Se  Se6  1  0.84943  0.69887  0.36656  1
 Se  Se7  1  0.15057  0.30113  0.86656  1
 Se  Se8  1  0.69887  0.84943  0.86656  1
