CIF file written using JARVIS-Tools package.
data_NdPb8F19
_symmetry_space_group_name_H-M  'P1'
_cell_length_a       4.13865
_cell_length_b       4.13504
_cell_length_c       38.1093
_cell_angle_alpha    60.7495
_cell_angle_beta     60.8052
_cell_angle_gamma    60.0074

_symmetry_Int_Tables_number  1
_chemical_formula_structural  NdPb8F19
_chemical_formula_sum  NdPb8F9
_cell_volume  466.5331527956036
_cell_formula_units_Z  1
loop_
  _symmetry_equiv_pos_site_id
 _symmetry_equiv_pos_as_xyz
 1  'x, y, z'
loop_
 _atom_site_type_symbol
 _atom_site_label
 _atom_site_symmetry_multiplicity
 _atom_site_fract_x
 _atom_site_fract_y
 _atom_site_fract_z
 _atom_site_fract_occupancy
 F  F1  1  0.78894  0.76619  0.74192  1
 F  F2  1  0.26762  0.25840  0.13519  1
 F  F3  1  0.76184  0.75371  0.08137  1
 F  F4  1  0.78588  0.77692  0.18459  1
 F  F5  1  0.27417  0.26169  0.35583  1
 F  F6  1  0.43233  0.42676  0.96859  1
 F  F7  1  0.77801  0.76729  0.29866  1
 F  F8  1  0.27500  0.25994  0.46720  1
 F  F9  1  0.78021  0.76708  0.40953  1
 F  F10  1  0.27671  0.26623  0.24348  1
 F  F11  1  0.27268  0.25093  0.69157  1
 F  F12  1  0.77990  0.76027  0.63319  1
 F  F13  1  0.28136  0.25657  0.80040  1
 F  F14  1  0.58803  0.58190  0.02791  1
 F  F15  1  0.26366  0.25134  0.91504  1
 F  F16  1  0.50497  0.47911  0.83719  1
 F  F17  1  0.73661  0.71195  0.87084  1
 F  F18  1  0.78104  0.76488  0.52099  1
 F  F19  1  0.27695  0.25875  0.57831  1
 Nd  Nd1  1  0.05872  0.03070  0.87522  1
 Pb  Pb1  1  0.03065  0.01906  0.32572  1
 Pb  Pb2  1  0.01582  0.00741  0.99685  1
 Pb  Pb3  1  0.02886  0.01969  0.10364  1
 Pb  Pb4  1  0.03181  0.02214  0.21385  1
 Pb  Pb5  1  0.03426  0.01094  0.77137  1
 Pb  Pb6  1  0.03132  0.01725  0.43712  1
 Pb  Pb7  1  0.03228  0.01513  0.54855  1
 Pb  Pb8  1  0.03238  0.01177  0.66033  1
