CIF file written using JARVIS-Tools package.
data_LiFeSiO4
_symmetry_space_group_name_H-M  'C222_1'
_cell_length_a       5.13284
_cell_length_b       5.13284
_cell_length_c       6.57738
_cell_angle_alpha    90
_cell_angle_beta     90
_cell_angle_gamma    91.2977

_symmetry_Int_Tables_number  20
_chemical_formula_structural  LiFeSiO4
_chemical_formula_sum  Li2Fe2Si2O8
_cell_volume  173.24344746225407
_cell_formula_units_Z  2
loop_
  _symmetry_equiv_pos_site_id
 _symmetry_equiv_pos_as_xyz
 1  'x, y, z'
loop_
 _atom_site_type_symbol
 _atom_site_label
 _atom_site_symmetry_multiplicity
 _atom_site_fract_x
 _atom_site_fract_y
 _atom_site_fract_z
 _atom_site_fract_occupancy
 Fe  Fe1  1  0.31909  0.68091  0.00000  1
 Fe  Fe2  1  0.68091  0.31909  0.50000  1
 Li  Li1  1  0.30860  0.69140  0.50000  1
 Li  Li2  1  0.69140  0.30860  0.00000  1
 O  O1  1  0.13917  0.76829  0.76018  1
 O  O2  1  0.23171  0.86083  0.23982  1
 O  O3  1  0.31728  0.30240  0.45284  1
 O  O4  1  0.30240  0.31728  0.04716  1
 O  O5  1  0.69760  0.68272  0.54716  1
 O  O6  1  0.68272  0.69760  0.95284  1
 O  O7  1  0.76829  0.13917  0.73982  1
 O  O8  1  0.86083  0.23171  0.26018  1
 Si  Si1  1  0.17528  0.17528  0.25000  1
 Si  Si2  1  0.82472  0.82472  0.75000  1
