CIF file written using JARVIS-Tools package.
data_NbN
_symmetry_space_group_name_H-M  'P6_3mc'
_cell_length_a       3.20511
_cell_length_b       3.20445
_cell_length_c       6.08229
_cell_angle_alpha    90
_cell_angle_beta     90
_cell_angle_gamma    120.007

_symmetry_Int_Tables_number  186
_chemical_formula_structural  NbN
_chemical_formula_sum  Nb2N2
_cell_volume  54.095899518945444
_cell_formula_units_Z  2
loop_
  _symmetry_equiv_pos_site_id
 _symmetry_equiv_pos_as_xyz
 1  'x, y, z'
loop_
 _atom_site_type_symbol
 _atom_site_label
 _atom_site_symmetry_multiplicity
 _atom_site_fract_x
 _atom_site_fract_y
 _atom_site_fract_z
 _atom_site_fract_occupancy
 N  N1  1  0.66673  0.33346  0.84262  1
 N  N2  1  0.33327  0.66654  0.34262  1
 Nb  Nb1  1  0.66668  0.33336  0.51338  1
 Nb  Nb2  1  0.33332  0.66664  0.01338  1
