CIF file written using JARVIS-Tools package.
data_CoH9C3N6
_symmetry_space_group_name_H-M  'R-3'
_cell_length_a       7.1772
_cell_length_b       7.1772
_cell_length_c       7.1772
_cell_angle_alpha    97.6128
_cell_angle_beta     97.6129
_cell_angle_gamma    97.6128

_symmetry_Int_Tables_number  148
_chemical_formula_structural  CoH9C3N6
_chemical_formula_sum  Co2H8C6N2
_cell_volume  358.96402403001423
_cell_formula_units_Z  2
loop_
  _symmetry_equiv_pos_site_id
 _symmetry_equiv_pos_as_xyz
 1  'x, y, z'
loop_
 _atom_site_type_symbol
 _atom_site_label
 _atom_site_symmetry_multiplicity
 _atom_site_fract_x
 _atom_site_fract_y
 _atom_site_fract_z
 _atom_site_fract_occupancy
 C  C1  1  0.76406  0.88593  0.04908  1
 C  C2  1  0.04908  0.76406  0.88593  1
 C  C3  1  0.11407  0.95092  0.23594  1
 C  C4  1  0.95092  0.23594  0.11407  1
 C  C5  1  0.88593  0.04908  0.76406  1
 C  C6  1  0.23594  0.11407  0.95092  1
 Co  Co1  1  0.00000  0.00000  0.00000  1
 Co  Co2  1  0.50000  0.50000  0.50000  1
 H  H1  1  0.84840  0.65545  0.56744  1
 H  H2  1  0.34314  0.80069  0.55229  1
 H  H3  1  0.80069  0.55229  0.34314  1
 H  H4  1  0.34455  0.43256  0.15160  1
 H  H5  1  0.43256  0.15160  0.34455  1
 H  H6  1  0.65686  0.19931  0.44771  1
 H  H7  1  0.65545  0.56744  0.84840  1
 H  H8  1  0.15160  0.34455  0.43256  1
 H  H9  1  0.19931  0.44771  0.65686  1
 H  H10  1  0.73463  0.76170  0.40747  1
 H  H11  1  0.40747  0.73463  0.76170  1
 H  H12  1  0.76170  0.40747  0.73463  1
 H  H13  1  0.59253  0.26537  0.23830  1
 H  H14  1  0.55229  0.34314  0.80069  1
 H  H15  1  0.23830  0.59253  0.26537  1
 H  H16  1  0.44771  0.65686  0.19931  1
 H  H17  1  0.56744  0.84840  0.65545  1
 H  H18  1  0.26537  0.23830  0.59253  1
 N  N1  1  0.25486  0.36892  0.55112  1
 N  N2  1  0.38250  0.18832  0.92196  1
 N  N3  1  0.92196  0.38250  0.18832  1
 N  N4  1  0.36892  0.55112  0.25486  1
 N  N5  1  0.61750  0.81168  0.07804  1
 N  N6  1  0.81168  0.07804  0.61750  1
 N  N7  1  0.63108  0.44888  0.74514  1
 N  N8  1  0.74514  0.63108  0.44888  1
 N  N9  1  0.44888  0.74514  0.63108  1
 N  N10  1  0.18832  0.92196  0.38250  1
 N  N11  1  0.07804  0.61750  0.81168  1
 N  N12  1  0.55112  0.25486  0.36892  1
