CIF file written using JARVIS-Tools package.
data_VCr2O4
_symmetry_space_group_name_H-M  'Fd-3m'
_cell_length_a       5.92952
_cell_length_b       5.92952
_cell_length_c       5.92952
_cell_angle_alpha    60
_cell_angle_beta     90
_cell_angle_gamma    120

_symmetry_Int_Tables_number  227
_chemical_formula_structural  VCr2O4
_chemical_formula_sum  V2Cr4O8
_cell_volume  147.41520339828062
_cell_formula_units_Z  2
loop_
  _symmetry_equiv_pos_site_id
 _symmetry_equiv_pos_as_xyz
 1  'x, y, z'
loop_
 _atom_site_type_symbol
 _atom_site_label
 _atom_site_symmetry_multiplicity
 _atom_site_fract_x
 _atom_site_fract_y
 _atom_site_fract_z
 _atom_site_fract_occupancy
 Cr  Cr1  1  0.50000  0.50000  0.00000  1
 Cr  Cr2  1  0.00000  0.00000  0.00000  1
 Cr  Cr3  1  -0.00000  0.00000  0.50000  1
 Cr  Cr4  1  -0.00000  0.50000  0.00000  1
 O  O1  1  0.78146  0.02097  0.23951  1
 O  O2  1  0.76049  0.52097  0.21854  1
 O  O3  1  0.23951  0.02097  0.23951  1
 O  O4  1  0.23951  0.47903  0.23951  1
 O  O5  1  0.76049  0.52097  0.76049  1
 O  O6  1  0.76049  0.97903  0.76049  1
 O  O7  1  0.23951  0.47903  0.78146  1
 O  O8  1  0.21854  0.97903  0.76049  1
 V  V1  1  0.62500  0.25000  0.62500  1
 V  V2  1  0.37500  0.75000  0.37500  1
