CIF file written using JARVIS-Tools package.
data_BiO2
_symmetry_space_group_name_H-M  'R-3m'
_cell_length_a       3.80569
_cell_length_b       3.80613
_cell_length_c       8.00212
_cell_angle_alpha    61.631
_cell_angle_beta     118.36
_cell_angle_gamma    120.002

_symmetry_Int_Tables_number  166
_chemical_formula_structural  BiO2
_chemical_formula_sum  Bi2O4
_cell_volume  83.92751858728498
_cell_formula_units_Z  2
loop_
  _symmetry_equiv_pos_site_id
 _symmetry_equiv_pos_as_xyz
 1  'x, y, z'
loop_
 _atom_site_type_symbol
 _atom_site_label
 _atom_site_symmetry_multiplicity
 _atom_site_fract_x
 _atom_site_fract_y
 _atom_site_fract_z
 _atom_site_fract_occupancy
 Bi  Bi1  1  -0.00219  -0.00020  0.50207  1
 Bi  Bi2  1  0.99768  -0.00050  0.00208  1
 O  O1  1  0.60083  0.39683  0.40649  1
 O  O2  1  0.76798  0.22957  0.15741  1
 O  O3  1  0.39480  0.60279  0.59767  1
 O  O4  1  0.22757  0.76995  0.84674  1
