CIF file written using JARVIS-Tools package.
data_GaCl3
_symmetry_space_group_name_H-M  'P-1'
_cell_length_a       6.86665
_cell_length_b       6.81502
_cell_length_c       6.86698
_cell_angle_alpha    119.206
_cell_angle_beta     90.2637
_cell_angle_gamma    120.154

_symmetry_Int_Tables_number  2
_chemical_formula_structural  GaCl3
_chemical_formula_sum  Ga2Cl6
_cell_volume  228.88200112711755
_cell_formula_units_Z  2
loop_
  _symmetry_equiv_pos_site_id
 _symmetry_equiv_pos_as_xyz
 1  'x, y, z'
loop_
 _atom_site_type_symbol
 _atom_site_label
 _atom_site_symmetry_multiplicity
 _atom_site_fract_x
 _atom_site_fract_y
 _atom_site_fract_z
 _atom_site_fract_occupancy
 Cl  Cl1  1  0.80601  0.61227  0.42789  1
 Cl  Cl2  1  0.24073  0.23597  0.99471  1
 Cl  Cl3  1  0.32281  0.87091  0.20468  1
 Cl  Cl4  1  0.19399  0.38773  0.57211  1
 Cl  Cl5  1  0.75927  0.76403  0.00529  1
 Cl  Cl6  1  0.67719  0.12909  0.79532  1
 Ga  Ga1  1  0.16125  0.07672  0.23667  1
 Ga  Ga2  1  0.83875  0.92328  0.76333  1
