CIF file written using JARVIS-Tools package.
data_LiCr2O4
_symmetry_space_group_name_H-M  'P6_3mc'
_cell_length_a       5.77748
_cell_length_b       5.77738
_cell_length_c       9.29855
_cell_angle_alpha    90.0024
_cell_angle_beta     89.9987
_cell_angle_gamma    119.999

_symmetry_Int_Tables_number  186
_chemical_formula_structural  LiCr2O4
_chemical_formula_sum  Li4Cr8O6
_cell_volume  268.79325234408805
_cell_formula_units_Z  4
loop_
  _symmetry_equiv_pos_site_id
 _symmetry_equiv_pos_as_xyz
 1  'x, y, z'
loop_
 _atom_site_type_symbol
 _atom_site_label
 _atom_site_symmetry_multiplicity
 _atom_site_fract_x
 _atom_site_fract_y
 _atom_site_fract_z
 _atom_site_fract_occupancy
 Cr  Cr1  1  0.33335  0.66668  0.48839  1
 Cr  Cr2  1  0.65875  0.82939  0.21223  1
 Cr  Cr3  1  0.17063  0.82938  0.21223  1
 Cr  Cr4  1  0.17063  0.34127  0.21222  1
 Cr  Cr5  1  0.82937  0.17065  0.71222  1
 Cr  Cr6  1  0.82937  0.65875  0.71223  1
 Cr  Cr7  1  0.34125  0.17064  0.71223  1
 Cr  Cr8  1  0.66665  0.33333  0.98839  1
 Li  Li1  1  0.33332  0.66669  0.89200  1
 Li  Li2  1  0.00004  -0.00001  0.49652  1
 Li  Li3  1  0.99996  0.99995  0.99652  1
 Li  Li4  1  0.66668  0.33337  0.39200  1
 O  O1  1  0.16622  0.33244  0.60232  1
 O  O2  1  0.16622  0.83379  0.60233  1
 O  O3  1  0.95822  0.47913  0.84159  1
 O  O4  1  0.33335  0.66669  0.10011  1
 O  O5  1  0.00000  0.00002  0.30852  1
 O  O6  1  -0.00000  0.00002  0.80852  1
 O  O7  1  0.04178  0.52091  0.34159  1
 O  O8  1  0.83378  0.66757  0.10233  1
 O  O9  1  0.66760  0.83381  0.60231  1
 O  O10  1  0.52088  0.47914  0.84158  1
 O  O11  1  0.52088  0.04178  0.84158  1
 O  O12  1  0.66665  0.33334  0.60011  1
 O  O13  1  0.47912  0.95825  0.34158  1
 O  O14  1  0.33240  0.16621  0.10231  1
 O  O15  1  0.47912  0.52089  0.34158  1
 O  O16  1  0.83378  0.16622  0.10232  1
