CIF file written using JARVIS-Tools package.
data_LiCoPO4
_symmetry_space_group_name_H-M  'Cc'
_cell_length_a       4.90627
_cell_length_b       5.06309
_cell_length_c       8.67993
_cell_angle_alpha    86.1357
_cell_angle_beta     91.9928
_cell_angle_gamma    121.063

_symmetry_Int_Tables_number  9
_chemical_formula_structural  LiCoPO4
_chemical_formula_sum  Li2Co2P2O8
_cell_volume  184.27757158865174
_cell_formula_units_Z  2
loop_
  _symmetry_equiv_pos_site_id
 _symmetry_equiv_pos_as_xyz
 1  'x, y, z'
loop_
 _atom_site_type_symbol
 _atom_site_label
 _atom_site_symmetry_multiplicity
 _atom_site_fract_x
 _atom_site_fract_y
 _atom_site_fract_z
 _atom_site_fract_occupancy
 Co  Co1  1  0.40919  0.69184  0.35502  1
 Co  Co2  1  0.59081  0.28265  0.85502  1
 Li  Li1  1  -0.11943  0.94985  0.68623  1
 Li  Li2  1  0.11943  0.06927  0.18623  1
 O  O1  1  -0.05447  0.60898  0.72479  1
 O  O2  1  0.45294  0.78623  0.56820  1
 O  O3  1  0.51049  0.86256  0.84367  1
 O  O4  1  0.22846  0.31323  0.75856  1
 O  O5  1  0.48951  0.35207  0.34367  1
 O  O6  1  0.54706  0.33329  0.06820  1
 O  O7  1  0.77154  0.08477  0.25856  1
 O  O8  1  0.05447  0.66346  0.22479  1
 P  P1  1  0.27675  0.63942  0.72399  1
 P  P2  1  0.72325  0.36267  0.22399  1
