CIF file written using JARVIS-Tools package.
data_TlGeF3
_symmetry_space_group_name_H-M  'P2_1/m'
_cell_length_a       4.76724
_cell_length_b       5.91824
_cell_length_c       7.21854
_cell_angle_alpha    90
_cell_angle_beta     105.672
_cell_angle_gamma    90

_symmetry_Int_Tables_number  11
_chemical_formula_structural  TlGeF3
_chemical_formula_sum  Tl2Ge2F6
_cell_volume  196.09040910803043
_cell_formula_units_Z  2
loop_
  _symmetry_equiv_pos_site_id
 _symmetry_equiv_pos_as_xyz
 1  'x, y, z'
loop_
 _atom_site_type_symbol
 _atom_site_label
 _atom_site_symmetry_multiplicity
 _atom_site_fract_x
 _atom_site_fract_y
 _atom_site_fract_z
 _atom_site_fract_occupancy
 F  F1  1  0.31796  0.97565  0.17005  1
 F  F2  1  0.68204  0.47565  0.82995  1
 F  F3  1  0.18399  0.25000  0.66243  1
 F  F4  1  0.81601  0.75000  0.33757  1
 F  F5  1  0.68204  0.02435  0.82995  1
 F  F6  1  0.31796  0.52435  0.17005  1
 Ge  Ge1  1  0.43090  0.75000  0.36157  1
 Ge  Ge2  1  0.56910  0.25000  0.63843  1
 Tl  Tl1  1  0.16592  0.75000  0.81140  1
 Tl  Tl2  1  0.83408  0.25000  0.18860  1
