CIF file written using JARVIS-Tools package.
data_Na3Mn2SbO6
_symmetry_space_group_name_H-M  'C2/m'
_cell_length_a       5.53849
_cell_length_b       5.5249
_cell_length_c       5.70657
_cell_angle_alpha    80.5376
_cell_angle_beta     70.8529
_cell_angle_gamma    59.9186

_symmetry_Int_Tables_number  12
_chemical_formula_structural  Na3Mn2SbO6
_chemical_formula_sum  Na3Mn2SbO6
_cell_volume  142.7412161957225
_cell_formula_units_Z  1
loop_
  _symmetry_equiv_pos_site_id
 _symmetry_equiv_pos_as_xyz
 1  'x, y, z'
loop_
 _atom_site_type_symbol
 _atom_site_label
 _atom_site_symmetry_multiplicity
 _atom_site_fract_x
 _atom_site_fract_y
 _atom_site_fract_z
 _atom_site_fract_occupancy
 Mn  Mn1  1  0.33378  0.33245  0.00000  1
 Mn  Mn2  1  0.66622  0.66755  0.00000  1
 Na  Na1  1  0.50000  0.00000  0.50000  1
 Na  Na2  1  0.17255  0.65490  0.50000  1
 Na  Na3  1  0.82745  0.34510  0.50000  1
 O  O1  1  0.06932  0.30975  0.78963  1
 O  O2  1  0.23899  0.00000  0.20681  1
 O  O3  1  0.76101  0.00000  0.79319  1
 O  O4  1  0.37907  0.69025  0.78963  1
 O  O5  1  0.62093  0.30975  0.21037  1
 O  O6  1  0.93068  0.69025  0.21037  1
 Sb  Sb1  1  0.00000  0.00000  0.00000  1
