CIF file written using JARVIS-Tools package.
data_SmTaO4
_symmetry_space_group_name_H-M  'Cmc2_1'
_cell_length_a       3.9228
_cell_length_b       7.67517
_cell_length_c       5.53866
_cell_angle_alpha    90
_cell_angle_beta     90
_cell_angle_gamma    104.806

_symmetry_Int_Tables_number  36
_chemical_formula_structural  SmTaO4
_chemical_formula_sum  Sm2Ta2O8
_cell_volume  161.2218433651978
_cell_formula_units_Z  2
loop_
  _symmetry_equiv_pos_site_id
 _symmetry_equiv_pos_as_xyz
 1  'x, y, z'
loop_
 _atom_site_type_symbol
 _atom_site_label
 _atom_site_symmetry_multiplicity
 _atom_site_fract_x
 _atom_site_fract_y
 _atom_site_fract_z
 _atom_site_fract_occupancy
 O  O1  1  0.09223  0.18446  0.73289  1
 O  O2  1  0.29864  0.59729  0.40373  1
 O  O3  1  0.33441  0.66882  0.91668  1
 O  O4  1  0.46934  0.93868  0.53809  1
 O  O5  1  0.53066  0.06132  0.03809  1
 O  O6  1  0.66559  0.33118  0.41668  1
 O  O7  1  0.70136  0.40271  0.90373  1
 O  O8  1  0.90777  0.81554  0.23289  1
 Sm  Sm1  1  0.18122  0.36243  0.13367  1
 Sm  Sm2  1  0.81878  0.63757  0.63367  1
 Ta  Ta1  1  0.41472  0.82944  0.19015  1
 Ta  Ta2  1  0.58528  0.17056  0.69015  1
