CIF file written using JARVIS-Tools package.
data_Li5Fe2Cu3O10
_symmetry_space_group_name_H-M  'P-1'
_cell_length_a       5.00516
_cell_length_b       5.21766
_cell_length_c       7.53977
_cell_angle_alpha    104.737
_cell_angle_beta     103.102
_cell_angle_gamma    103.925

_symmetry_Int_Tables_number  2
_chemical_formula_structural  Li5Fe2Cu3O10
_chemical_formula_sum  Li5Fe2Cu3O0
_cell_volume  175.92102465614826
_cell_formula_units_Z  1
loop_
  _symmetry_equiv_pos_site_id
 _symmetry_equiv_pos_as_xyz
 1  'x, y, z'
loop_
 _atom_site_type_symbol
 _atom_site_label
 _atom_site_symmetry_multiplicity
 _atom_site_fract_x
 _atom_site_fract_y
 _atom_site_fract_z
 _atom_site_fract_occupancy
 Cu  Cu1  1  -0.00000  0.50000  -0.00000  1
 Cu  Cu2  1  0.30267  0.11503  0.10253  1
 Cu  Cu3  1  0.69733  0.88497  0.89747  1
 Fe  Fe1  1  0.89993  0.32219  0.31121  1
 Fe  Fe2  1  0.10007  0.67781  0.68879  1
 Li  Li1  1  0.20642  0.90981  0.39986  1
 Li  Li2  1  0.59891  0.71785  0.21070  1
 Li  Li3  1  0.50000  0.50000  0.50000  1
 Li  Li4  1  0.40109  0.28215  0.78930  1
 Li  Li5  1  0.79358  0.09019  0.60014  1
 O  O1  1  0.86630  0.67463  0.45719  1
 O  O2  1  0.66175  0.33938  0.07712  1
 O  O3  1  0.06080  0.01733  0.83106  1
 O  O4  1  0.33825  0.66062  0.92288  1
 O  O5  1  0.13370  0.32537  0.54281  1
 O  O6  1  0.20995  0.52816  0.25230  1
 O  O7  1  0.43903  0.87460  0.65898  1
 O  O8  1  0.56097  0.12540  0.34102  1
 O  O9  1  0.79005  0.47184  0.74770  1
 O  O10  1  0.93920  0.98267  0.16894  1
