CIF file written using JARVIS-Tools package.
data_TbTlTe2
_symmetry_space_group_name_H-M  'R-3m'
_cell_length_a       4.442
_cell_length_b       4.442
_cell_length_c       8.5266
_cell_angle_alpha    74.9015
_cell_angle_beta     74.9015
_cell_angle_gamma    60

_symmetry_Int_Tables_number  166
_chemical_formula_structural  TbTlTe2
_chemical_formula_sum  TbTlTe2
_cell_volume  138.9549495278891
_cell_formula_units_Z  1
loop_
  _symmetry_equiv_pos_site_id
 _symmetry_equiv_pos_as_xyz
 1  'x, y, z'
loop_
 _atom_site_type_symbol
 _atom_site_label
 _atom_site_symmetry_multiplicity
 _atom_site_fract_x
 _atom_site_fract_y
 _atom_site_fract_z
 _atom_site_fract_occupancy
 Tb  Tb1  1  0.00000  0.00000  0.00000  1
 Te  Te1  1  0.73846  0.73846  0.78462  1
 Te  Te2  1  0.26154  0.26154  0.21538  1
 Tl  Tl1  1  0.50000  0.50000  0.50000  1
