CIF file written using JARVIS-Tools package.
data_Cr3Te4
_symmetry_space_group_name_H-M  'P-3m1'
_cell_length_a       4.00796
_cell_length_b       4.00802
_cell_length_c       12.4434
_cell_angle_alpha    90.01
_cell_angle_beta     90
_cell_angle_gamma    119.999

_symmetry_Int_Tables_number  164
_chemical_formula_structural  Cr3Te4
_chemical_formula_sum  Cr3Te4
_cell_volume  173.1107853475208
_cell_formula_units_Z  1
loop_
  _symmetry_equiv_pos_site_id
 _symmetry_equiv_pos_as_xyz
 1  'x, y, z'
loop_
 _atom_site_type_symbol
 _atom_site_label
 _atom_site_symmetry_multiplicity
 _atom_site_fract_x
 _atom_site_fract_y
 _atom_site_fract_z
 _atom_site_fract_occupancy
 Cr  Cr1  1  0.00000  0.00000  0.50000  1
 Cr  Cr2  1  0.99988  0.99976  0.23669  1
 Cr  Cr3  1  0.00012  0.00024  0.76331  1
 Te  Te1  1  0.66650  0.33301  0.12436  1
 Te  Te2  1  0.66673  0.33346  0.62907  1
 Te  Te3  1  0.33350  0.66699  0.87564  1
 Te  Te4  1  0.33327  0.66654  0.37093  1
