CIF file written using JARVIS-Tools package.
data_VF5
_symmetry_space_group_name_H-M  'P1'
_cell_length_a       4.84798
_cell_length_b       4.84623
_cell_length_c       8.11956
_cell_angle_alpha    112.182
_cell_angle_beta     95.2201
_cell_angle_gamma    102.32

_symmetry_Int_Tables_number  1
_chemical_formula_structural  VF5
_chemical_formula_sum  V2F0
_cell_volume  169.44598670174253
_cell_formula_units_Z  2
loop_
  _symmetry_equiv_pos_site_id
 _symmetry_equiv_pos_as_xyz
 1  'x, y, z'
loop_
 _atom_site_type_symbol
 _atom_site_label
 _atom_site_symmetry_multiplicity
 _atom_site_fract_x
 _atom_site_fract_y
 _atom_site_fract_z
 _atom_site_fract_occupancy
 F  F1  1  0.21466  0.32679  0.00970  1
 F  F2  1  0.18014  0.78343  0.85869  1
 F  F3  1  0.41604  0.33245  0.62352  1
 F  F4  1  0.71147  0.98170  0.73199  1
 F  F5  1  0.18274  0.78710  0.50657  1
 F  F6  1  0.81824  0.22449  0.48223  1
 F  F7  1  0.24577  0.02217  0.23382  1
 F  F8  1  0.57883  0.67987  0.35733  1
 F  F9  1  0.78230  0.19927  0.12091  1
 F  F10  1  0.75992  0.65849  -0.01885  1
 V  V1  1  0.03875  -0.00157  0.04204  1
 V  V2  1  0.54221  0.00017  0.54160  1
