CIF file written using JARVIS-Tools package.
data_Mn3CrO8
_symmetry_space_group_name_H-M  'R-3m'
_cell_length_a       5.74172
_cell_length_b       5.74172
_cell_length_c       5.74172
_cell_angle_alpha    59.7796
_cell_angle_beta     59.7796
_cell_angle_gamma    59.7796

_symmetry_Int_Tables_number  166
_chemical_formula_structural  Mn3CrO8
_chemical_formula_sum  Mn3CrO8
_cell_volume  133.17835662703294
_cell_formula_units_Z  1
loop_
  _symmetry_equiv_pos_site_id
 _symmetry_equiv_pos_as_xyz
 1  'x, y, z'
loop_
 _atom_site_type_symbol
 _atom_site_label
 _atom_site_symmetry_multiplicity
 _atom_site_fract_x
 _atom_site_fract_y
 _atom_site_fract_z
 _atom_site_fract_occupancy
 Cr  Cr1  1  0.50000  0.50000  0.50000  1
 Mn  Mn1  1  0.00000  0.50000  0.50000  1
 Mn  Mn2  1  0.50000  0.00000  0.50000  1
 Mn  Mn3  1  0.50000  0.50000  0.00000  1
 O  O1  1  0.26408  0.26408  0.26408  1
 O  O2  1  0.70750  0.26363  0.26363  1
 O  O3  1  0.26363  0.70750  0.26363  1
 O  O4  1  0.26363  0.26363  0.70750  1
 O  O5  1  0.73637  0.73637  0.29250  1
 O  O6  1  0.73637  0.29250  0.73637  1
 O  O7  1  0.73592  0.73592  0.73592  1
 O  O8  1  0.29250  0.73637  0.73637  1
