CIF file written using JARVIS-Tools package.
data_VOF
_symmetry_space_group_name_H-M  'Ama2'
_cell_length_a       4.65899
_cell_length_b       4.65899
_cell_length_c       12.2565
_cell_angle_alpha    90
_cell_angle_beta     90
_cell_angle_gamma    90.1522

_symmetry_Int_Tables_number  40
_chemical_formula_structural  VOF
_chemical_formula_sum  V8O8F8
_cell_volume  266.0409750322641
_cell_formula_units_Z  8
loop_
  _symmetry_equiv_pos_site_id
 _symmetry_equiv_pos_as_xyz
 1  'x, y, z'
loop_
 _atom_site_type_symbol
 _atom_site_label
 _atom_site_symmetry_multiplicity
 _atom_site_fract_x
 _atom_site_fract_y
 _atom_site_fract_z
 _atom_site_fract_occupancy
 F  F1  1  0.79241  0.20476  0.87514  1
 F  F2  1  0.69596  0.72455  0.75000  1
 F  F3  1  0.72455  0.69596  0.25000  1
 F  F4  1  0.29192  0.29192  0.50000  1
 F  F5  1  0.29192  0.29192  0.00000  1
 F  F6  1  0.20476  0.79241  0.37514  1
 F  F7  1  0.20476  0.79241  0.12486  1
 F  F8  1  0.79241  0.20476  0.62486  1
 O  O1  1  0.18732  0.81498  0.87411  1
 O  O2  1  0.18732  0.81498  0.62589  1
 O  O3  1  0.31747  0.30601  0.25000  1
 O  O4  1  0.30601  0.31747  0.75000  1
 O  O5  1  0.68550  0.68550  0.00000  1
 O  O6  1  0.81498  0.18732  0.12589  1
 O  O7  1  0.81498  0.18732  0.37411  1
 O  O8  1  0.68550  0.68550  0.50000  1
 V  V1  1  0.52813  0.47267  0.37506  1
 V  V2  1  0.47267  0.52813  0.87506  1
 V  V3  1  0.47267  0.52813  0.62494  1
 V  V4  1  0.52813  0.47267  0.12494  1
 V  V5  1  0.04878  0.01546  0.75000  1
 V  V6  1  0.96820  0.96820  0.50000  1
 V  V7  1  0.01546  0.04878  0.25000  1
 V  V8  1  0.96820  0.96820  0.00000  1
