CIF file written using JARVIS-Tools package.
data_FeS2
_symmetry_space_group_name_H-M  'P2/c'
_cell_length_a       6.09015
_cell_length_b       5.61386
_cell_length_c       5.48841
_cell_angle_alpha    90
_cell_angle_beta     90
_cell_angle_gamma    90.1338

_symmetry_Int_Tables_number  13
_chemical_formula_structural  FeS2
_chemical_formula_sum  Fe4S8
_cell_volume  187.64438362990361
_cell_formula_units_Z  4
loop_
  _symmetry_equiv_pos_site_id
 _symmetry_equiv_pos_as_xyz
 1  'x, y, z'
loop_
 _atom_site_type_symbol
 _atom_site_label
 _atom_site_symmetry_multiplicity
 _atom_site_fract_x
 _atom_site_fract_y
 _atom_site_fract_z
 _atom_site_fract_occupancy
 Fe  Fe1  1  0.41282  0.01723  0.00050  1
 Fe  Fe2  1  0.41282  0.51723  0.49950  1
 Fe  Fe3  1  0.58718  0.48383  0.00050  1
 Fe  Fe4  1  0.58718  0.98383  0.49950  1
 S  S1  1  0.73318  0.34372  0.35197  1
 S  S2  1  0.26085  0.86352  0.65654  1
 S  S3  1  0.73318  0.84372  0.14803  1
 S  S4  1  0.26085  0.36352  0.84346  1
 S  S5  1  0.26682  0.65734  0.14803  1
 S  S6  1  0.26682  0.15734  0.35197  1
 S  S7  1  0.73915  0.63754  0.65654  1
 S  S8  1  0.73915  0.13754  0.84346  1
