CIF file written using JARVIS-Tools package.
data_CoPHO5
_symmetry_space_group_name_H-M  'P-1'
_cell_length_a       5.05517
_cell_length_b       5.07286
_cell_length_c       6.85478
_cell_angle_alpha    105.582
_cell_angle_beta     106.553
_cell_angle_gamma    102.227

_symmetry_Int_Tables_number  2
_chemical_formula_structural  CoPHO5
_chemical_formula_sum  Co2P2H2O0
_cell_volume  154.19184488126092
_cell_formula_units_Z  2
loop_
  _symmetry_equiv_pos_site_id
 _symmetry_equiv_pos_as_xyz
 1  'x, y, z'
loop_
 _atom_site_type_symbol
 _atom_site_label
 _atom_site_symmetry_multiplicity
 _atom_site_fract_x
 _atom_site_fract_y
 _atom_site_fract_z
 _atom_site_fract_occupancy
 Co  Co1  1  -0.00000  0.00000  0.50000  1
 Co  Co2  1  0.00000  0.00000  0.00000  1
 H  H1  1  0.31334  -0.07499  0.30264  1
 H  H2  1  0.68666  0.07499  0.69736  1
 O  O1  1  0.89824  0.08837  0.74585  1
 O  O2  1  0.67229  0.09871  0.36211  1
 O  O3  1  0.24932  0.37434  0.58733  1
 O  O4  1  0.37530  0.24284  0.07252  1
 O  O5  1  0.90969  0.32505  0.13642  1
 O  O6  1  0.09031  0.67495  0.86358  1
 O  O7  1  0.62470  0.75716  0.92748  1
 O  O8  1  0.75068  0.62566  0.41267  1
 O  O9  1  0.32771  0.90129  0.63789  1
 O  O10  1  0.10176  0.91163  0.25415  1
 P  P1  1  0.68162  0.32427  0.24514  1
 P  P2  1  0.31838  0.67573  0.75486  1
