CIF file written using JARVIS-Tools package.
data_CrOF
_symmetry_space_group_name_H-M  'Pmmn'
_cell_length_a       3.86564
_cell_length_b       2.79412
_cell_length_c       5.71194
_cell_angle_alpha    90
_cell_angle_beta     90
_cell_angle_gamma    90

_symmetry_Int_Tables_number  59
_chemical_formula_structural  CrOF
_chemical_formula_sum  Cr2O2F2
_cell_volume  61.69499037995859
_cell_formula_units_Z  2
loop_
  _symmetry_equiv_pos_site_id
 _symmetry_equiv_pos_as_xyz
 1  'x, y, z'
loop_
 _atom_site_type_symbol
 _atom_site_label
 _atom_site_symmetry_multiplicity
 _atom_site_fract_x
 _atom_site_fract_y
 _atom_site_fract_z
 _atom_site_fract_occupancy
 Cr  Cr1  1  0.25000  0.25000  0.11746  1
 Cr  Cr2  1  0.75000  0.75000  0.88254  1
 F  F1  1  0.25000  0.75000  0.35361  1
 F  F2  1  0.75000  0.25000  0.64639  1
 O  O1  1  0.25000  0.75000  0.87492  1
 O  O2  1  0.75000  0.25000  0.12508  1
