CIF file written using JARVIS-Tools package.
data_BH4NF4
_symmetry_space_group_name_H-M  'Pnma'
_cell_length_a       7.02968
_cell_length_b       8.37193
_cell_length_c       5.98842
_cell_angle_alpha    90
_cell_angle_beta     90
_cell_angle_gamma    90

_symmetry_Int_Tables_number  62
_chemical_formula_structural  BH4NF4
_chemical_formula_sum  B4H6N4F6
_cell_volume  352.43072347075855
_cell_formula_units_Z  4
loop_
  _symmetry_equiv_pos_site_id
 _symmetry_equiv_pos_as_xyz
 1  'x, y, z'
loop_
 _atom_site_type_symbol
 _atom_site_label
 _atom_site_symmetry_multiplicity
 _atom_site_fract_x
 _atom_site_fract_y
 _atom_site_fract_z
 _atom_site_fract_occupancy
 B  B1  1  0.80843  0.58537  0.25000  1
 B  B2  1  0.69157  0.08537  0.25000  1
 B  B3  1  0.19157  0.41463  0.75000  1
 B  B4  1  0.30843  0.91463  0.75000  1
 F  F1  1  0.19119  0.91945  0.55746  1
 F  F2  1  0.19119  0.91945  0.94254  1
 F  F3  1  0.30881  0.41945  0.55746  1
 F  F4  1  0.80881  0.08055  0.44254  1
 F  F5  1  0.69119  0.58055  0.05746  1
 F  F6  1  0.41400  0.77005  0.75000  1
 F  F7  1  0.58600  0.22995  0.25000  1
 F  F8  1  0.30881  0.41945  0.94254  1
 F  F9  1  0.91400  0.72995  0.25000  1
 F  F10  1  0.43466  0.04588  0.75000  1
 F  F11  1  0.06534  0.54588  0.75000  1
 F  F12  1  0.93466  0.45412  0.25000  1
 F  F13  1  0.69119  0.58055  0.44254  1
 F  F14  1  0.56534  0.95412  0.25000  1
 F  F15  1  0.08600  0.27005  0.75000  1
 F  F16  1  0.80881  0.08055  0.05746  1
 H  H1  1  0.82224  0.28518  0.75000  1
 H  H2  1  0.34427  0.60977  0.39015  1
 H  H3  1  0.84427  0.89023  0.60985  1
 H  H4  1  0.65573  0.39023  0.89015  1
 H  H5  1  0.84427  0.89023  0.89015  1
 H  H6  1  0.65573  0.39023  0.60985  1
 H  H7  1  0.15573  0.10977  0.39015  1
 H  H8  1  0.34427  0.60977  0.10985  1
 H  H9  1  0.15573  0.10977  0.10985  1
 H  H10  1  0.67776  0.78518  0.75000  1
 H  H11  1  0.32224  0.21482  0.25000  1
 H  H12  1  0.17776  0.71482  0.25000  1
 H  H13  1  0.90645  0.72255  0.75000  1
 H  H14  1  0.59355  0.22255  0.75000  1
 H  H15  1  0.09355  0.27745  0.25000  1
 H  H16  1  0.40645  0.77745  0.25000  1
 N  N1  1  0.31863  0.67867  0.25000  1
 N  N2  1  0.18137  0.17867  0.25000  1
 N  N3  1  0.68137  0.32133  0.75000  1
 N  N4  1  0.81863  0.82133  0.75000  1
