CIF file written using JARVIS-Tools package.
data_CaMoN3
_symmetry_space_group_name_H-M  'C2/m'
_cell_length_a       3.70533
_cell_length_b       6.39612
_cell_length_c       6.43239
_cell_angle_alpha    104.32
_cell_angle_beta     106.74
_cell_angle_gamma    90

_symmetry_Int_Tables_number  12
_chemical_formula_structural  CaMoN3
_chemical_formula_sum  Ca2Mo2N6
_cell_volume  141.0327470257579
_cell_formula_units_Z  2
loop_
  _symmetry_equiv_pos_site_id
 _symmetry_equiv_pos_as_xyz
 1  'x, y, z'
loop_
 _atom_site_type_symbol
 _atom_site_label
 _atom_site_symmetry_multiplicity
 _atom_site_fract_x
 _atom_site_fract_y
 _atom_site_fract_z
 _atom_site_fract_occupancy
 Ca  Ca1  1  0.62337  0.33039  0.24673  1
 Ca  Ca2  1  0.37663  0.66961  0.75327  1
 Mo  Mo1  1  0.84932  0.14287  0.69865  1
 Mo  Mo2  1  0.15068  0.85713  0.30135  1
 N  N1  1  0.32195  0.01431  0.64391  1
 N  N2  1  0.15649  0.58339  0.31297  1
 N  N3  1  -0.00322  0.89141  -0.00644  1
 N  N4  1  0.00322  0.10859  0.00644  1
 N  N5  1  0.67805  0.98569  0.35609  1
 N  N6  1  0.84351  0.41661  0.68703  1
