CIF file written using JARVIS-Tools package.
data_MoW3Se4S4
_symmetry_space_group_name_H-M  'P3m1'
_cell_length_a       3.25683
_cell_length_b       3.25681
_cell_length_c       36.8293
_cell_angle_alpha    90
_cell_angle_beta     90
_cell_angle_gamma    120

_symmetry_Int_Tables_number  156
_chemical_formula_structural  MoW3Se4S4
_chemical_formula_sum  MoW3Se4S4
_cell_volume  338.30616364450793
_cell_formula_units_Z  1
loop_
  _symmetry_equiv_pos_site_id
 _symmetry_equiv_pos_as_xyz
 1  'x, y, z'
loop_
 _atom_site_type_symbol
 _atom_site_label
 _atom_site_symmetry_multiplicity
 _atom_site_fract_x
 _atom_site_fract_y
 _atom_site_fract_z
 _atom_site_fract_occupancy
 Mo  Mo1  1  0.33330  0.66661  0.46967  1
 S  S1  1  0.66665  0.33330  0.05184  1
 S  S2  1  0.66665  0.33329  0.42775  1
 S  S3  1  0.66665  0.33330  0.13602  1
 S  S4  1  0.66664  0.33329  0.51158  1
 Se  Se1  1  0.33335  0.66670  0.32816  1
 Se  Se2  1  0.33335  0.66671  0.70384  1
 Se  Se3  1  0.33335  0.66670  0.23541  1
 Se  Se4  1  0.33335  0.66671  0.61120  1
 W  W1  1  0.33331  0.66662  0.09391  1
 W  W2  1  0.66670  0.33340  0.28179  1
 W  W3  1  0.66670  0.33340  0.65758  1
