CIF file written using JARVIS-Tools package.
data_UBr5
_symmetry_space_group_name_H-M  'P-1'
_cell_length_a       6.67485
_cell_length_b       7.37346
_cell_length_c       10.4825
_cell_angle_alpha    113.461
_cell_angle_beta     71.2015
_cell_angle_gamma    116.211

_symmetry_Int_Tables_number  2
_chemical_formula_structural  UBr5
_chemical_formula_sum  U2Br0
_cell_volume  417.82684171056184
_cell_formula_units_Z  2
loop_
  _symmetry_equiv_pos_site_id
 _symmetry_equiv_pos_as_xyz
 1  'x, y, z'
loop_
 _atom_site_type_symbol
 _atom_site_label
 _atom_site_symmetry_multiplicity
 _atom_site_fract_x
 _atom_site_fract_y
 _atom_site_fract_z
 _atom_site_fract_occupancy
 Br  Br1  1  0.53130  0.74371  0.34094  1
 Br  Br2  1  0.46870  0.25629  0.65906  1
 Br  Br3  1  0.26226  0.23963  0.04767  1
 Br  Br4  1  0.73774  0.76037  -0.04767  1
 Br  Br5  1  0.32180  0.75100  0.74474  1
 Br  Br6  1  0.67820  0.24900  0.25526  1
 Br  Br7  1  0.87976  0.25079  0.84891  1
 Br  Br8  1  0.12024  0.74921  0.15109  1
 Br  Br9  1  0.92489  0.74985  0.55666  1
 Br  Br10  1  0.07511  0.25015  0.44334  1
 U  U1  1  0.89170  -0.00106  0.21756  1
 U  U2  1  0.10830  0.00106  0.78244  1
