CIF file written using JARVIS-Tools package.
data_LiFeC2O6
_symmetry_space_group_name_H-M  'R-3'
_cell_length_a       4.55128
_cell_length_b       5.50797
_cell_length_c       4.55128
_cell_angle_alpha    65.5969
_cell_angle_beta     120
_cell_angle_gamma    114.403

_symmetry_Int_Tables_number  148
_chemical_formula_structural  LiFeC2O6
_chemical_formula_sum  LiFeC2O6
_cell_volume  86.83831379619973
_cell_formula_units_Z  1
loop_
  _symmetry_equiv_pos_site_id
 _symmetry_equiv_pos_as_xyz
 1  'x, y, z'
loop_
 _atom_site_type_symbol
 _atom_site_label
 _atom_site_symmetry_multiplicity
 _atom_site_fract_x
 _atom_site_fract_y
 _atom_site_fract_z
 _atom_site_fract_occupancy
 C  C1  1  0.24257  0.72770  0.75743  1
 C  C2  1  0.75743  0.27230  0.24257  1
 Fe  Fe1  1  0.50000  0.50000  0.50000  1
 Li  Li1  1  0.00000  0.00000  0.00000  1
 O  O1  1  0.04897  0.26923  0.26060  1
 O  O2  1  0.51914  0.73077  0.04897  1
 O  O3  1  0.26060  0.73077  0.48086  1
 O  O4  1  0.73940  0.26923  0.51914  1
 O  O5  1  0.48086  0.26923  0.95103  1
 O  O6  1  0.95103  0.73077  0.73940  1
