CIF file written using JARVIS-Tools package.
data_KGeCl3
_symmetry_space_group_name_H-M  'P1'
_cell_length_a       5.28081
_cell_length_b       5.28442
_cell_length_c       5.28299
_cell_angle_alpha    87.5309
_cell_angle_beta     87.7598
_cell_angle_gamma    87.6715

_symmetry_Int_Tables_number  1
_chemical_formula_structural  KGeCl3
_chemical_formula_sum  KGeCl3
_cell_volume  147.06573020356925
_cell_formula_units_Z  1
loop_
  _symmetry_equiv_pos_site_id
 _symmetry_equiv_pos_as_xyz
 1  'x, y, z'
loop_
 _atom_site_type_symbol
 _atom_site_label
 _atom_site_symmetry_multiplicity
 _atom_site_fract_x
 _atom_site_fract_y
 _atom_site_fract_z
 _atom_site_fract_occupancy
 Cl  Cl1  1  0.49859  0.48591  0.97726  1
 Cl  Cl2  1  -0.00987  0.48705  0.48575  1
 Cl  Cl3  1  0.49817  0.97884  0.48464  1
 Ge  Ge1  1  0.52288  0.51265  0.51076  1
 K  K1  1  0.05023  0.04555  0.04159  1
