CIF file written using JARVIS-Tools package.
data_SiH2O
_symmetry_space_group_name_H-M  'Cm'
_cell_length_a       3.13227
_cell_length_b       3.35773
_cell_length_c       5.01966
_cell_angle_alpha    90
_cell_angle_beta     73.925
_cell_angle_gamma    122.411

_symmetry_Int_Tables_number  8
_chemical_formula_structural  SiH2O
_chemical_formula_sum  SiH2O
_cell_volume  42.10379824116357
_cell_formula_units_Z  1
loop_
  _symmetry_equiv_pos_site_id
 _symmetry_equiv_pos_as_xyz
 1  'x, y, z'
loop_
 _atom_site_type_symbol
 _atom_site_label
 _atom_site_symmetry_multiplicity
 _atom_site_fract_x
 _atom_site_fract_y
 _atom_site_fract_z
 _atom_site_fract_occupancy
 H  H1  1  0.46727  0.73364  0.71253  1
 H  H2  1  0.80809  0.40404  0.20851  1
 O  O1  1  0.20359  0.60180  0.61227  1
 Si  Si1  1  0.46318  0.73159  0.25669  1
