CIF file written using JARVIS-Tools package.
data_Li2TiCr2O6
_symmetry_space_group_name_H-M  'Cmce'
_cell_length_a       5.09098
_cell_length_b       5.09098
_cell_length_c       9.98732
_cell_angle_alpha    90
_cell_angle_beta     90
_cell_angle_gamma    120.1

_symmetry_Int_Tables_number  64
_chemical_formula_structural  Li2TiCr2O6
_chemical_formula_sum  Li4Ti2Cr4O2
_cell_volume  223.9473679475128
_cell_formula_units_Z  2
loop_
  _symmetry_equiv_pos_site_id
 _symmetry_equiv_pos_as_xyz
 1  'x, y, z'
loop_
 _atom_site_type_symbol
 _atom_site_label
 _atom_site_symmetry_multiplicity
 _atom_site_fract_x
 _atom_site_fract_y
 _atom_site_fract_z
 _atom_site_fract_occupancy
 Cr  Cr1  1  0.16362  0.83638  0.50000  1
 Cr  Cr2  1  0.33638  0.66362  0.00000  1
 Cr  Cr3  1  0.66362  0.33638  0.00000  1
 Cr  Cr4  1  0.83638  0.16362  0.50000  1
 Li  Li1  1  0.14799  0.64799  0.75000  1
 Li  Li2  1  0.35201  0.85201  0.25000  1
 Li  Li3  1  0.64799  0.14799  0.75000  1
 Li  Li4  1  0.85201  0.35201  0.25000  1
 O  O1  1  0.83428  0.49405  0.60741  1
 O  O2  1  0.99405  0.33428  0.89259  1
 O  O3  1  0.16572  0.50595  0.39259  1
 O  O4  1  0.49405  0.83428  0.60741  1
 O  O5  1  0.00595  0.66572  0.10741  1
 O  O6  1  0.32895  0.32895  0.10104  1
 O  O7  1  0.50595  0.16572  0.39259  1
 O  O8  1  0.33428  0.99405  0.89259  1
 O  O9  1  0.82895  0.82895  0.39896  1
 O  O10  1  0.17105  0.17105  0.60104  1
 O  O11  1  0.67105  0.67105  0.89896  1
 O  O12  1  0.66572  0.00595  0.10741  1
 Ti  Ti1  1  0.50000  0.50000  0.50000  1
 Ti  Ti2  1  0.00000  0.00000  0.00000  1
