CIF file written using JARVIS-Tools package.
data_NdPb6F15
_symmetry_space_group_name_H-M  'R3m'
_cell_length_a       4.15411
_cell_length_b       4.15411
_cell_length_c       29.534
_cell_angle_alpha    60.5092
_cell_angle_beta     60.5092
_cell_angle_gamma    60.0092

_symmetry_Int_Tables_number  160
_chemical_formula_structural  NdPb6F15
_chemical_formula_sum  NdPb6F5
_cell_volume  363.15726600018036
_cell_formula_units_Z  1
loop_
  _symmetry_equiv_pos_site_id
 _symmetry_equiv_pos_as_xyz
 1  'x, y, z'
loop_
 _atom_site_type_symbol
 _atom_site_label
 _atom_site_symmetry_multiplicity
 _atom_site_fract_x
 _atom_site_fract_y
 _atom_site_fract_z
 _atom_site_fract_occupancy
 F  F1  1  0.27385  0.27385  0.88829  1
 F  F2  1  0.28599  0.28599  0.16864  1
 F  F3  1  0.78863  0.78863  0.09611  1
 F  F4  1  0.28534  0.28534  0.31168  1
 F  F5  1  0.29622  0.29622  0.02154  1
 F  F6  1  0.28469  0.28469  0.45481  1
 F  F7  1  0.78871  0.78871  0.38164  1
 F  F8  1  0.79131  0.79131  0.23770  1
 F  F9  1  0.78465  0.78465  0.52628  1
 F  F10  1  0.28450  0.28450  0.74076  1
 F  F11  1  0.81477  0.81477  0.94217  1
 F  F12  1  0.79188  0.79188  0.66612  1
 F  F13  1  0.50540  0.50540  0.78897  1
 F  F14  1  0.72415  0.72415  0.83814  1
 F  F15  1  0.27600  0.27600  0.60145  1
 Nd  Nd1  1  0.05230  0.05230  0.84039  1
 Pb  Pb1  1  0.03281  0.03281  0.56280  1
 Pb  Pb2  1  0.03258  0.03258  0.70583  1
 Pb  Pb3  1  0.03562  0.03562  0.41869  1
 Pb  Pb4  1  0.03748  0.03748  0.27505  1
 Pb  Pb5  1  0.03887  0.03887  0.13171  1
 Pb  Pb6  1  0.04423  0.04423  0.98667  1
