CIF file written using JARVIS-Tools package.
data_ReN
_symmetry_space_group_name_H-M  'P4_2/mmc'
_cell_length_a       2.71788
_cell_length_b       2.71788
_cell_length_c       6.23253
_cell_angle_alpha    90
_cell_angle_beta     90
_cell_angle_gamma    90

_symmetry_Int_Tables_number  131
_chemical_formula_structural  ReN
_chemical_formula_sum  Re2N2
_cell_volume  46.03887085045809
_cell_formula_units_Z  2
loop_
  _symmetry_equiv_pos_site_id
 _symmetry_equiv_pos_as_xyz
 1  'x, y, z'
loop_
 _atom_site_type_symbol
 _atom_site_label
 _atom_site_symmetry_multiplicity
 _atom_site_fract_x
 _atom_site_fract_y
 _atom_site_fract_z
 _atom_site_fract_occupancy
 N  N1  1  0.00000  0.00000  0.75000  1
 N  N2  1  0.00000  0.00000  0.25000  1
 Re  Re1  1  0.50000  0.00000  0.50000  1
 Re  Re2  1  0.00000  0.50000  0.00000  1
