CIF file written using JARVIS-Tools package.
data_CrAgO4
_symmetry_space_group_name_H-M  'P2_1/c'
_cell_length_a       5.17849
_cell_length_b       9.05568
_cell_length_c       7.66832
_cell_angle_alpha    90
_cell_angle_beta     108.012
_cell_angle_gamma    90

_symmetry_Int_Tables_number  14
_chemical_formula_structural  CrAgO4
_chemical_formula_sum  Cr4Ag4O6
_cell_volume  341.9799491836367
_cell_formula_units_Z  4
loop_
  _symmetry_equiv_pos_site_id
 _symmetry_equiv_pos_as_xyz
 1  'x, y, z'
loop_
 _atom_site_type_symbol
 _atom_site_label
 _atom_site_symmetry_multiplicity
 _atom_site_fract_x
 _atom_site_fract_y
 _atom_site_fract_z
 _atom_site_fract_occupancy
 Ag  Ag1  1  0.42079  0.69320  0.95576  1
 Ag  Ag2  1  0.07921  0.19320  0.54424  1
 Ag  Ag3  1  0.92079  0.80680  0.45576  1
 Ag  Ag4  1  0.57921  0.30680  0.04424  1
 Cr  Cr1  1  0.15488  0.51405  0.27007  1
 Cr  Cr2  1  0.34512  0.01405  0.22993  1
 Cr  Cr3  1  0.65488  0.98595  0.77007  1
 Cr  Cr4  1  0.84512  0.48595  0.72993  1
 O  O1  1  0.94161  0.65222  0.24240  1
 O  O2  1  0.98551  0.64481  0.70501  1
 O  O3  1  0.90619  0.93845  0.98454  1
 O  O4  1  0.01449  0.35519  0.29499  1
 O  O5  1  0.30813  0.50480  0.10931  1
 O  O6  1  0.59381  0.43845  0.51546  1
 O  O7  1  0.19187  0.00480  0.39069  1
 O  O8  1  0.40619  0.56155  0.48454  1
 O  O9  1  0.55839  0.15222  0.25760  1
 O  O10  1  0.48551  0.85519  0.20501  1
 O  O11  1  0.51449  0.14481  0.79499  1
 O  O12  1  0.69187  0.49520  0.89069  1
 O  O13  1  0.80813  0.99520  0.60931  1
 O  O14  1  0.09381  0.06155  0.01546  1
 O  O15  1  0.44161  0.84778  0.74240  1
 O  O16  1  0.05839  0.34778  0.75760  1
