CIF file written using JARVIS-Tools package.
data_LiMnPO4
_symmetry_space_group_name_H-M  'Pbcn'
_cell_length_a       4.38534
_cell_length_b       4.8078
_cell_length_c       14.2528
_cell_angle_alpha    90
_cell_angle_beta     90
_cell_angle_gamma    90

_symmetry_Int_Tables_number  60
_chemical_formula_structural  LiMnPO4
_chemical_formula_sum  Li4Mn4P4O6
_cell_volume  300.50348220362935
_cell_formula_units_Z  4
loop_
  _symmetry_equiv_pos_site_id
 _symmetry_equiv_pos_as_xyz
 1  'x, y, z'
loop_
 _atom_site_type_symbol
 _atom_site_label
 _atom_site_symmetry_multiplicity
 _atom_site_fract_x
 _atom_site_fract_y
 _atom_site_fract_z
 _atom_site_fract_occupancy
 Li  Li1  1  0.00000  0.25000  0.24833  1
 Li  Li2  1  0.00000  0.75000  0.75167  1
 Li  Li3  1  0.50000  0.75000  0.25167  1
 Li  Li4  1  0.50000  0.25000  0.74833  1
 Mn  Mn1  1  0.00000  0.75000  0.07378  1
 Mn  Mn2  1  0.00000  0.25000  0.92622  1
 Mn  Mn3  1  0.50000  0.75000  0.57378  1
 Mn  Mn4  1  0.50000  0.25000  0.42622  1
 O  O1  1  0.81560  0.03846  0.67543  1
 O  O2  1  0.76565  0.41118  0.55413  1
 O  O3  1  0.76565  0.91118  0.44587  1
 O  O4  1  0.81560  0.53846  0.32457  1
 O  O5  1  0.73435  0.41118  0.05413  1
 O  O6  1  0.18440  0.96154  0.32457  1
 O  O7  1  0.68440  0.53846  0.82457  1
 O  O8  1  0.73435  0.91118  0.94587  1
 O  O9  1  0.31560  0.46154  0.17543  1
 O  O10  1  0.26565  0.08882  0.05413  1
 O  O11  1  0.23435  0.08882  0.55413  1
 O  O12  1  0.23435  0.58882  0.44587  1
 O  O13  1  0.68440  0.03846  0.17543  1
 O  O14  1  0.26565  0.58882  0.94587  1
 O  O15  1  0.31560  0.96154  0.82457  1
 O  O16  1  0.18440  0.46154  0.67543  1
 P  P1  1  0.00000  0.75000  0.38546  1
 P  P2  1  0.00000  0.25000  0.61454  1
 P  P3  1  0.50000  0.75000  0.88546  1
 P  P4  1  0.50000  0.25000  0.11454  1
