CIF file written using JARVIS-Tools package.
data_LiMn2F6
_symmetry_space_group_name_H-M  'P321'
_cell_length_a       8.70397
_cell_length_b       8.70371
_cell_length_c       4.62491
_cell_angle_alpha    89.9997
_cell_angle_beta     90
_cell_angle_gamma    120.001

_symmetry_Int_Tables_number  150
_chemical_formula_structural  LiMn2F6
_chemical_formula_sum  Li3Mn6F8
_cell_volume  303.4250290283838
_cell_formula_units_Z  3
loop_
  _symmetry_equiv_pos_site_id
 _symmetry_equiv_pos_as_xyz
 1  'x, y, z'
loop_
 _atom_site_type_symbol
 _atom_site_label
 _atom_site_symmetry_multiplicity
 _atom_site_fract_x
 _atom_site_fract_y
 _atom_site_fract_z
 _atom_site_fract_occupancy
 F  F1  1  0.54091  0.10681  0.25708  1
 F  F2  1  0.10639  0.87998  0.76807  1
 F  F3  1  0.21436  0.77479  0.27068  1
 F  F4  1  0.10682  0.54092  0.74291  1
 F  F5  1  0.43410  0.89319  0.74292  1
 F  F6  1  0.89318  0.43410  0.25707  1
 F  F7  1  0.22522  0.43958  0.27069  1
 F  F8  1  0.56042  0.78564  0.27068  1
 F  F9  1  0.12002  0.22642  0.76809  1
 F  F10  1  0.45908  0.56590  0.74293  1
 F  F11  1  0.77358  0.89360  0.76807  1
 F  F12  1  0.56589  0.45908  0.25709  1
 F  F13  1  0.22640  0.12002  0.23193  1
 F  F14  1  0.87998  0.10640  0.23193  1
 F  F15  1  0.78564  0.56042  0.72931  1
 F  F16  1  0.77478  0.21436  0.72932  1
 F  F17  1  0.43957  0.22521  0.72932  1
 F  F18  1  0.89359  0.77358  0.23191  1
 Li  Li1  1  0.66666  0.33333  0.49347  1
 Li  Li2  1  -0.00001  0.00000  0.00000  1
 Li  Li3  1  0.33334  0.66667  0.50653  1
 Mn  Mn1  1  0.35060  0.35061  0.00000  1
 Mn  Mn2  1  -0.00001  0.64939  -0.00000  1
 Mn  Mn3  1  -0.00000  0.31497  0.50000  1
 Mn  Mn4  1  0.64939  0.00000  0.00000  1
 Mn  Mn5  1  0.31496  0.00000  0.50000  1
 Mn  Mn6  1  0.68503  0.68503  0.50000  1
