CIF file written using JARVIS-Tools package.
data_VOF3
_symmetry_space_group_name_H-M  'Ama2'
_cell_length_a       5.62516
_cell_length_b       5.6222
_cell_length_c       8.04509
_cell_angle_alpha    90
_cell_angle_beta     90
_cell_angle_gamma    90

_symmetry_Int_Tables_number  40
_chemical_formula_structural  VOF3
_chemical_formula_sum  V4O4F2
_cell_volume  254.43207918497288
_cell_formula_units_Z  4
loop_
  _symmetry_equiv_pos_site_id
 _symmetry_equiv_pos_as_xyz
 1  'x, y, z'
loop_
 _atom_site_type_symbol
 _atom_site_label
 _atom_site_symmetry_multiplicity
 _atom_site_fract_x
 _atom_site_fract_y
 _atom_site_fract_z
 _atom_site_fract_occupancy
 F  F1  1  0.74347  0.52426  0.25012  1
 F  F2  1  0.99987  0.74387  0.03952  1
 F  F3  1  0.00005  0.25587  0.96049  1
 F  F4  1  0.24347  0.02426  0.24988  1
 F  F5  1  0.24347  0.97574  0.74988  1
 F  F6  1  0.99987  0.25613  0.53952  1
 F  F7  1  0.50005  0.75587  0.53951  1
 F  F8  1  0.49987  0.24387  0.46048  1
 F  F9  1  0.49987  0.75613  0.96048  1
 F  F10  1  0.00005  0.74413  0.46049  1
 F  F11  1  0.74347  0.47574  0.75012  1
 F  F12  1  0.50005  0.24413  0.03951  1
 O  O1  1  0.77002  0.98057  0.74997  1
 O  O2  1  0.77002  0.01943  0.24997  1
 O  O3  1  0.27002  0.51943  0.25003  1
 O  O4  1  0.27002  0.48057  0.75003  1
 V  V1  1  0.98355  0.16960  0.74998  1
 V  V2  1  0.98355  0.83040  0.24998  1
 V  V3  1  0.48355  0.66960  0.75002  1
 V  V4  1  0.48355  0.33040  0.25002  1
