CIF file written using JARVIS-Tools package.
data_SiGe2N4
_symmetry_space_group_name_H-M  'Fd-3m'
_cell_length_a       5.76178
_cell_length_b       5.76178
_cell_length_c       5.76178
_cell_angle_alpha    60
_cell_angle_beta     60
_cell_angle_gamma    60

_symmetry_Int_Tables_number  227
_chemical_formula_structural  SiGe2N4
_chemical_formula_sum  Si2Ge4N8
_cell_volume  135.25534922670536
_cell_formula_units_Z  2
loop_
  _symmetry_equiv_pos_site_id
 _symmetry_equiv_pos_as_xyz
 1  'x, y, z'
loop_
 _atom_site_type_symbol
 _atom_site_label
 _atom_site_symmetry_multiplicity
 _atom_site_fract_x
 _atom_site_fract_y
 _atom_site_fract_z
 _atom_site_fract_occupancy
 Ge  Ge1  1  0.00000  -0.00000  0.50000  1
 Ge  Ge2  1  0.00000  0.50000  -0.00000  1
 Ge  Ge3  1  0.00000  0.50000  0.50000  1
 Ge  Ge4  1  0.50000  0.50000  0.50000  1
 N  N1  1  0.75332  0.74005  0.25332  1
 N  N2  1  0.75332  0.25332  0.74005  1
 N  N3  1  0.75332  0.25332  0.25332  1
 N  N4  1  0.24005  0.25332  0.25332  1
 N  N5  1  0.24668  0.25995  0.74668  1
 N  N6  1  0.24668  0.74668  0.25995  1
 N  N7  1  0.24668  0.74668  0.74668  1
 N  N8  1  0.75995  0.74668  0.74668  1
 Si  Si1  1  0.62500  0.12500  0.12500  1
 Si  Si2  1  0.37500  0.87500  0.87500  1
