CIF file written using JARVIS-Tools package.
data_HoNiGe2
_symmetry_space_group_name_H-M  'Cmcm'
_cell_length_a       8.60203
_cell_length_b       8.60203
_cell_length_c       4.19861
_cell_angle_alpha    90
_cell_angle_beta     90
_cell_angle_gamma    27.2276

_symmetry_Int_Tables_number  63
_chemical_formula_structural  HoNiGe2
_chemical_formula_sum  Ho2Ni2Ge4
_cell_volume  142.14189607179605
_cell_formula_units_Z  2
loop_
  _symmetry_equiv_pos_site_id
 _symmetry_equiv_pos_as_xyz
 1  'x, y, z'
loop_
 _atom_site_type_symbol
 _atom_site_label
 _atom_site_symmetry_multiplicity
 _atom_site_fract_x
 _atom_site_fract_y
 _atom_site_fract_z
 _atom_site_fract_occupancy
 Ge  Ge1  1  0.74753  0.74753  0.25000  1
 Ge  Ge2  1  0.54047  0.54047  0.75000  1
 Ge  Ge3  1  0.45953  0.45953  0.25000  1
 Ge  Ge4  1  0.25247  0.25247  0.75000  1
 Ho  Ho1  1  0.89190  0.89190  0.75000  1
 Ho  Ho2  1  0.10809  0.10809  0.25000  1
 Ni  Ni1  1  0.67723  0.67723  0.75000  1
 Ni  Ni2  1  0.32277  0.32277  0.25000  1
