CIF file written using JARVIS-Tools package.
data_RbPbCl3
_symmetry_space_group_name_H-M  'Pm'
_cell_length_a       5.6647
_cell_length_b       5.62506
_cell_length_c       5.6778
_cell_angle_alpha    90.0173
_cell_angle_beta     91.1153
_cell_angle_gamma    89.9774

_symmetry_Int_Tables_number  6
_chemical_formula_structural  RbPbCl3
_chemical_formula_sum  RbPbCl3
_cell_volume  180.88472112300315
_cell_formula_units_Z  1
loop_
  _symmetry_equiv_pos_site_id
 _symmetry_equiv_pos_as_xyz
 1  'x, y, z'
loop_
 _atom_site_type_symbol
 _atom_site_label
 _atom_site_symmetry_multiplicity
 _atom_site_fract_x
 _atom_site_fract_y
 _atom_site_fract_z
 _atom_site_fract_occupancy
 Cl  Cl1  1  0.43269  0.00006  0.47725  1
 Cl  Cl2  1  0.98449  0.50030  0.55628  1
 Cl  Cl3  1  0.46317  0.49956  0.00089  1
 Pb  Pb1  1  0.48861  0.50001  0.49913  1
 Rb  Rb1  1  0.07105  0.00008  0.95645  1
