CIF file written using JARVIS-Tools package.
data_Ca3TiNiO6
_symmetry_space_group_name_H-M  'R-3c'
_cell_length_a       6.42411
_cell_length_b       6.42411
_cell_length_c       6.4241
_cell_angle_alpha    92.4926
_cell_angle_beta     92.4926
_cell_angle_gamma    92.4926

_symmetry_Int_Tables_number  167
_chemical_formula_structural  Ca3TiNiO6
_chemical_formula_sum  Ca6Ti2Ni2O2
_cell_volume  264.34243011897877
_cell_formula_units_Z  2
loop_
  _symmetry_equiv_pos_site_id
 _symmetry_equiv_pos_as_xyz
 1  'x, y, z'
loop_
 _atom_site_type_symbol
 _atom_site_label
 _atom_site_symmetry_multiplicity
 _atom_site_fract_x
 _atom_site_fract_y
 _atom_site_fract_z
 _atom_site_fract_occupancy
 Ca  Ca1  1  0.60856  0.89144  0.25000  1
 Ca  Ca2  1  0.10856  0.75000  0.39144  1
 Ca  Ca3  1  0.75000  0.39144  0.10856  1
 Ca  Ca4  1  0.39144  0.10856  0.75000  1
 Ca  Ca5  1  0.89144  0.25000  0.60856  1
 Ca  Ca6  1  0.25000  0.60856  0.89144  1
 Ni  Ni1  1  0.75000  0.75000  0.75000  1
 Ni  Ni2  1  0.25000  0.25000  0.25000  1
 O  O1  1  0.41950  0.54302  0.20668  1
 O  O2  1  0.79332  0.58050  0.45697  1
 O  O3  1  0.58050  0.45698  0.79332  1
 O  O4  1  0.45698  0.79332  0.58050  1
 O  O5  1  0.20668  0.41950  0.54303  1
 O  O6  1  0.91950  0.70668  0.04302  1
 O  O7  1  0.54302  0.20668  0.41950  1
 O  O8  1  0.08050  0.29332  0.95698  1
 O  O9  1  0.95698  0.08050  0.29332  1
 O  O10  1  0.04303  0.91950  0.70668  1
 O  O11  1  0.29332  0.95698  0.08050  1
 O  O12  1  0.70668  0.04302  0.91950  1
 Ti  Ti1  1  0.00000  0.00000  0.00000  1
 Ti  Ti2  1  0.50000  0.50000  0.50000  1
