CIF file written using JARVIS-Tools package.
data_LiV2F5
_symmetry_space_group_name_H-M  'Cmcm'
_cell_length_a       4.10587
_cell_length_b       10.1878
_cell_length_c       5.4189
_cell_angle_alpha    90
_cell_angle_beta     112.264
_cell_angle_gamma    90

_symmetry_Int_Tables_number  63
_chemical_formula_structural  LiV2F5
_chemical_formula_sum  Li2V4F0
_cell_volume  209.77305251442382
_cell_formula_units_Z  2
loop_
  _symmetry_equiv_pos_site_id
 _symmetry_equiv_pos_as_xyz
 1  'x, y, z'
loop_
 _atom_site_type_symbol
 _atom_site_label
 _atom_site_symmetry_multiplicity
 _atom_site_fract_x
 _atom_site_fract_y
 _atom_site_fract_z
 _atom_site_fract_occupancy
 F  F1  1  0.32300  0.94599  0.64598  1
 F  F2  1  0.32300  0.55401  0.64598  1
 F  F3  1  0.05444  0.88244  0.10877  1
 F  F4  1  0.05444  0.61756  0.10877  1
 F  F5  1  0.23851  0.25000  0.47724  1
 F  F6  1  0.76149  0.75000  0.52276  1
 F  F7  1  0.94556  0.11756  0.89123  1
 F  F8  1  0.94556  0.38244  0.89123  1
 F  F9  1  0.67700  0.05401  0.35402  1
 F  F10  1  0.67700  0.44599  0.35402  1
 Li  Li1  1  0.17810  0.75000  0.35635  1
 Li  Li2  1  0.82190  0.25000  0.64365  1
 V  V1  1  0.14369  0.43513  0.28740  1
 V  V2  1  0.14369  0.06487  0.28740  1
 V  V3  1  0.85631  0.93513  0.71260  1
 V  V4  1  0.85631  0.56487  0.71260  1
