CIF file written using JARVIS-Tools package.
data_V2CoO4
_symmetry_space_group_name_H-M  'Fd-3m'
_cell_length_a       5.82116
_cell_length_b       5.82117
_cell_length_c       5.82117
_cell_angle_alpha    120.015
_cell_angle_beta     120.015
_cell_angle_gamma    89.9742

_symmetry_Int_Tables_number  227
_chemical_formula_structural  V2CoO4
_chemical_formula_sum  V4Co2O8
_cell_volume  139.4495319116277
_cell_formula_units_Z  2
loop_
  _symmetry_equiv_pos_site_id
 _symmetry_equiv_pos_as_xyz
 1  'x, y, z'
loop_
 _atom_site_type_symbol
 _atom_site_label
 _atom_site_symmetry_multiplicity
 _atom_site_fract_x
 _atom_site_fract_y
 _atom_site_fract_z
 _atom_site_fract_occupancy
 Co  Co1  1  0.12500  0.87500  0.25000  1
 Co  Co2  1  0.87500  0.12500  0.75000  1
 O  O1  1  0.25748  0.74273  0.98525  1
 O  O2  1  0.25727  0.74252  0.51475  1
 O  O3  1  0.25748  0.27223  0.51475  1
 O  O4  1  0.72777  0.74252  0.98525  1
 O  O5  1  0.27223  0.25748  0.01475  1
 O  O6  1  0.74252  0.72777  0.48525  1
 O  O7  1  0.74273  0.25748  0.48525  1
 O  O8  1  0.74252  0.25727  0.01475  1
 V  V1  1  0.00000  0.50000  0.50000  1
 V  V2  1  0.50000  0.50000  0.50000  1
 V  V3  1  0.50000  0.50000  0.00000  1
 V  V4  1  0.50000  -0.00000  0.00000  1
