CIF file written using JARVIS-Tools package.
data_Au3S
_symmetry_space_group_name_H-M  'P6_3/mmc'
_cell_length_a       5.83676
_cell_length_b       5.83676
_cell_length_c       4.87911
_cell_angle_alpha    90
_cell_angle_beta     90
_cell_angle_gamma    120

_symmetry_Int_Tables_number  194
_chemical_formula_structural  Au3S
_chemical_formula_sum  Au6S2
_cell_volume  143.95100427827307
_cell_formula_units_Z  2
loop_
  _symmetry_equiv_pos_site_id
 _symmetry_equiv_pos_as_xyz
 1  'x, y, z'
loop_
 _atom_site_type_symbol
 _atom_site_label
 _atom_site_symmetry_multiplicity
 _atom_site_fract_x
 _atom_site_fract_y
 _atom_site_fract_z
 _atom_site_fract_occupancy
 Au  Au1  1  0.16585  0.33170  0.25000  1
 Au  Au2  1  0.66830  0.83415  0.25000  1
 Au  Au3  1  0.16585  0.83415  0.25000  1
 Au  Au4  1  0.83415  0.66830  0.75000  1
 Au  Au5  1  0.33170  0.16585  0.75000  1
 Au  Au6  1  0.83415  0.16585  0.75000  1
 S  S1  1  0.33333  0.66667  0.75000  1
 S  S2  1  0.66667  0.33333  0.25000  1
