CIF file written using JARVIS-Tools package.
data_Ca5MnO6
_symmetry_space_group_name_H-M  'C2/m'
_cell_length_a       3.36365
_cell_length_b       5.81707
_cell_length_c       8.87374
_cell_angle_alpha    70.6763
_cell_angle_beta     100.925
_cell_angle_gamma    90

_symmetry_Int_Tables_number  12
_chemical_formula_structural  Ca5MnO6
_chemical_formula_sum  Ca5MnO6
_cell_volume  160.50855413440445
_cell_formula_units_Z  1
loop_
  _symmetry_equiv_pos_site_id
 _symmetry_equiv_pos_as_xyz
 1  'x, y, z'
loop_
 _atom_site_type_symbol
 _atom_site_label
 _atom_site_symmetry_multiplicity
 _atom_site_fract_x
 _atom_site_fract_y
 _atom_site_fract_z
 _atom_site_fract_occupancy
 Ca  Ca1  1  0.83512  0.49527  0.67024  1
 Ca  Ca2  1  0.33540  0.99946  0.67080  1
 Ca  Ca3  1  0.16488  0.50473  0.32976  1
 Ca  Ca4  1  0.50000  0.50000  0.00000  1
 Ca  Ca5  1  0.66460  0.00054  0.32920  1
 Mn  Mn1  1  0.00000  0.00000  0.00000  1
 O  O1  1  0.91796  0.75311  0.83591  1
 O  O2  1  0.42112  0.23777  0.84224  1
 O  O3  1  0.25103  0.74577  0.50206  1
 O  O4  1  0.57888  0.76223  0.15776  1
 O  O5  1  0.74897  0.25423  0.49794  1
 O  O6  1  0.08204  0.24689  0.16409  1
