CIF file written using JARVIS-Tools package.
data_Na2SmPCO7
_symmetry_space_group_name_H-M  'P2_1/m'
_cell_length_a       5.08348
_cell_length_b       7.04296
_cell_length_c       9.4617
_cell_angle_alpha    90
_cell_angle_beta     90.0059
_cell_angle_gamma    90

_symmetry_Int_Tables_number  11
_chemical_formula_structural  Na2SmPCO7
_chemical_formula_sum  Na4Sm2P2C2O4
_cell_volume  338.75504319960885
_cell_formula_units_Z  2
loop_
  _symmetry_equiv_pos_site_id
 _symmetry_equiv_pos_as_xyz
 1  'x, y, z'
loop_
 _atom_site_type_symbol
 _atom_site_label
 _atom_site_symmetry_multiplicity
 _atom_site_fract_x
 _atom_site_fract_y
 _atom_site_fract_z
 _atom_site_fract_occupancy
 C  C1  1  0.74769  0.75000  0.08933  1
 C  C2  1  0.25231  0.25000  0.91067  1
 Na  Na1  1  0.24377  0.48905  0.20272  1
 Na  Na2  1  0.24377  0.01095  0.20272  1
 Na  Na3  1  0.75623  0.51095  0.79728  1
 Na  Na4  1  0.75623  0.98905  0.79728  1
 O  O1  1  0.27979  0.25000  0.04306  1
 O  O2  1  0.02400  0.25000  0.84722  1
 O  O3  1  0.54321  0.75000  0.17606  1
 O  O4  1  0.84310  0.07069  0.34847  1
 O  O5  1  0.84310  0.42931  0.34847  1
 O  O6  1  0.97600  0.75000  0.15278  1
 O  O7  1  0.40654  0.25000  0.37615  1
 O  O8  1  0.59346  0.75000  0.62385  1
 O  O9  1  0.15690  0.92931  0.65153  1
 O  O10  1  0.15690  0.57069  0.65153  1
 O  O11  1  0.26814  0.75000  0.42762  1
 O  O12  1  0.45679  0.25000  0.82394  1
 O  O13  1  0.73186  0.25000  0.57238  1
 O  O14  1  0.72021  0.75000  0.95694  1
 P  P1  1  0.29331  0.75000  0.59374  1
 P  P2  1  0.70669  0.25000  0.40626  1
 Sm  Sm1  1  0.22374  0.25000  0.61257  1
 Sm  Sm2  1  0.77626  0.75000  0.38743  1
