CIF file written using JARVIS-Tools package.
data_LiSi2NiO6
_symmetry_space_group_name_H-M  'C222'
_cell_length_a       5.34872
_cell_length_b       5.37962
_cell_length_c       5.49726
_cell_angle_alpha    89.9999
_cell_angle_beta     90
_cell_angle_gamma    119.809

_symmetry_Int_Tables_number  21
_chemical_formula_structural  LiSi2NiO6
_chemical_formula_sum  LiSi2NiO6
_cell_volume  137.24891985791865
_cell_formula_units_Z  1
loop_
  _symmetry_equiv_pos_site_id
 _symmetry_equiv_pos_as_xyz
 1  'x, y, z'
loop_
 _atom_site_type_symbol
 _atom_site_label
 _atom_site_symmetry_multiplicity
 _atom_site_fract_x
 _atom_site_fract_y
 _atom_site_fract_z
 _atom_site_fract_occupancy
 Li  Li1  1  0.00003  -0.00000  0.00001  1
 Ni  Ni1  1  0.50003  0.00000  -0.00001  1
 O  O1  1  0.15219  0.78848  0.83663  1
 O  O2  1  0.24123  0.48251  0.49996  1
 O  O3  1  0.63634  0.78847  0.16335  1
 O  O4  1  0.36371  0.21152  0.16337  1
 O  O5  1  0.75871  0.51749  0.50004  1
 O  O6  1  0.84787  0.21153  0.83664  1
 Si  Si1  1  0.00001  0.50000  0.66767  1
 Si  Si2  1  0.50000  0.50000  0.33233  1
