CIF file written using JARVIS-Tools package.
data_CdSbS2Br
_symmetry_space_group_name_H-M  'C2/m'
_cell_length_a       3.98024
_cell_length_b       6.82067
_cell_length_c       9.66273
_cell_angle_alpha    91.3707
_cell_angle_beta     90
_cell_angle_gamma    106.964

_symmetry_Int_Tables_number  12
_chemical_formula_structural  CdSbS2Br
_chemical_formula_sum  Cd2Sb2S4Br2
_cell_volume  250.8292677878496
_cell_formula_units_Z  2
loop_
  _symmetry_equiv_pos_site_id
 _symmetry_equiv_pos_as_xyz
 1  'x, y, z'
loop_
 _atom_site_type_symbol
 _atom_site_label
 _atom_site_symmetry_multiplicity
 _atom_site_fract_x
 _atom_site_fract_y
 _atom_site_fract_z
 _atom_site_fract_occupancy
 Br  Br1  1  0.36285  0.72571  0.07558  1
 Br  Br2  1  0.63715  0.27429  0.92442  1
 Cd  Cd1  1  0.00000  0.00000  0.00000  1
 Cd  Cd2  1  -0.00000  -0.00000  0.50000  1
 S  S1  1  0.91526  0.83053  0.74133  1
 S  S2  1  0.35378  0.70756  0.44757  1
 S  S3  1  0.64622  0.29244  0.55243  1
 S  S4  1  0.08474  0.16947  0.25867  1
 Sb  Sb1  1  0.28384  0.56768  0.68924  1
 Sb  Sb2  1  0.71616  0.43232  0.31076  1
