CIF file written using JARVIS-Tools package.
data_YHO2
_symmetry_space_group_name_H-M  'P6_3/mmc'
_cell_length_a       3.5138
_cell_length_b       3.51387
_cell_length_c       9.2082
_cell_angle_alpha    89.9992
_cell_angle_beta     89.9999
_cell_angle_gamma    120.002

_symmetry_Int_Tables_number  194
_chemical_formula_structural  YHO2
_chemical_formula_sum  Y2H2O4
_cell_volume  98.46028748967457
_cell_formula_units_Z  2
loop_
  _symmetry_equiv_pos_site_id
 _symmetry_equiv_pos_as_xyz
 1  'x, y, z'
loop_
 _atom_site_type_symbol
 _atom_site_label
 _atom_site_symmetry_multiplicity
 _atom_site_fract_x
 _atom_site_fract_y
 _atom_site_fract_z
 _atom_site_fract_occupancy
 H  H1  1  0.33333  0.66669  0.24999  1
 H  H2  1  0.66667  0.33336  0.74999  1
 O  O1  1  0.33332  0.66682  0.11697  1
 O  O2  1  0.33335  0.66656  0.38303  1
 O  O3  1  0.66667  0.33349  0.88304  1
 O  O4  1  0.66666  0.33323  0.61697  1
 Y  Y1  1  1.00000  0.00017  1.00000  1
 Y  Y2  1  0.00000  0.99988  0.50000  1
