CIF file written using JARVIS-Tools package.
data_Li4MnNi3P4O16
_symmetry_space_group_name_H-M  'Pm'
_cell_length_a       4.70437
_cell_length_b       5.9383
_cell_length_c       10.1312
_cell_angle_alpha    90
_cell_angle_beta     89.8708
_cell_angle_gamma    90

_symmetry_Int_Tables_number  6
_chemical_formula_structural  Li4MnNi3P4O16
_chemical_formula_sum  Li4MnNi3P4O6
_cell_volume  283.02450887694715
_cell_formula_units_Z  1
loop_
  _symmetry_equiv_pos_site_id
 _symmetry_equiv_pos_as_xyz
 1  'x, y, z'
loop_
 _atom_site_type_symbol
 _atom_site_label
 _atom_site_symmetry_multiplicity
 _atom_site_fract_x
 _atom_site_fract_y
 _atom_site_fract_z
 _atom_site_fract_occupancy
 Li  Li1  1  0.99705  0.25042  0.99564  1
 Li  Li2  1  0.99705  0.74958  0.99564  1
 Li  Li3  1  0.50231  0.74702  0.50563  1
 Li  Li4  1  0.50231  0.25298  0.50563  1
 Mn  Mn1  1  0.02217  0.00000  0.27766  1
 Ni  Ni1  1  0.98217  0.50000  0.72649  1
 Ni  Ni2  1  0.51933  0.50000  0.22225  1
 Ni  Ni3  1  0.47864  0.00000  0.77552  1
 O  O1  1  0.77770  0.20860  0.66771  1
 O  O2  1  0.71680  0.20750  0.16001  1
 O  O3  1  0.74392  0.50000  0.90260  1
 O  O4  1  0.79517  0.00000  0.45532  1
 O  O5  1  0.77770  0.79140  0.66771  1
 O  O6  1  0.22735  0.29442  0.33656  1
 O  O7  1  0.70593  0.00000  0.94627  1
 O  O8  1  0.75926  0.50000  0.40251  1
 O  O9  1  0.29443  0.50000  0.04866  1
 O  O10  1  0.24383  0.00000  0.59895  1
 O  O11  1  0.27702  0.29270  0.83475  1
 O  O12  1  0.25401  0.00000  0.09187  1
 O  O13  1  0.71680  0.79250  0.16001  1
 O  O14  1  0.22735  0.70558  0.33656  1
 O  O15  1  0.27702  0.70730  0.83475  1
 O  O16  1  0.20463  0.50000  0.55104  1
 P  P1  1  0.91774  0.00000  0.59788  1
 P  P2  1  0.57944  0.00000  0.08797  1
 P  P3  1  0.41792  0.50000  0.90612  1
 P  P4  1  0.08495  0.50000  0.40829  1
