CIF file written using JARVIS-Tools package.
data_LiMnFeO4
_symmetry_space_group_name_H-M  'Imma'
_cell_length_a       5.76065
_cell_length_b       5.73107
_cell_length_c       5.73106
_cell_angle_alpha    59.0822
_cell_angle_beta     59.8291
_cell_angle_gamma    59.8292

_symmetry_Int_Tables_number  74
_chemical_formula_structural  LiMnFeO4
_chemical_formula_sum  Li2Mn2Fe2O8
_cell_volume  132.49891017947348
_cell_formula_units_Z  2
loop_
  _symmetry_equiv_pos_site_id
 _symmetry_equiv_pos_as_xyz
 1  'x, y, z'
loop_
 _atom_site_type_symbol
 _atom_site_label
 _atom_site_symmetry_multiplicity
 _atom_site_fract_x
 _atom_site_fract_y
 _atom_site_fract_z
 _atom_site_fract_occupancy
 Fe  Fe1  1  0.50000  0.00000  0.50000  1
 Fe  Fe2  1  0.50000  0.50000  -0.00000  1
 Li  Li1  1  0.12222  0.12778  0.12778  1
 Li  Li2  1  0.87778  0.87222  0.87222  1
 Mn  Mn1  1  0.00000  0.50000  0.50000  1
 Mn  Mn2  1  0.50000  0.50000  0.50000  1
 O  O1  1  0.25907  0.26512  0.26512  1
 O  O2  1  0.26263  0.25989  0.71484  1
 O  O3  1  0.26263  0.71484  0.25989  1
 O  O4  1  0.71068  0.26512  0.26512  1
 O  O5  1  0.28932  0.73488  0.73488  1
 O  O6  1  0.73737  0.74011  0.28516  1
 O  O7  1  0.73737  0.28516  0.74011  1
 O  O8  1  0.74093  0.73488  0.73488  1
