CIF file written using JARVIS-Tools package.
data_NbVO5
_symmetry_space_group_name_H-M  'P4/n'
_cell_length_a       6.76964
_cell_length_b       6.76964
_cell_length_c       4.11665
_cell_angle_alpha    90
_cell_angle_beta     90
_cell_angle_gamma    90

_symmetry_Int_Tables_number  85
_chemical_formula_structural  NbVO5
_chemical_formula_sum  Nb2V2O0
_cell_volume  188.65787398365902
_cell_formula_units_Z  2
loop_
  _symmetry_equiv_pos_site_id
 _symmetry_equiv_pos_as_xyz
 1  'x, y, z'
loop_
 _atom_site_type_symbol
 _atom_site_label
 _atom_site_symmetry_multiplicity
 _atom_site_fract_x
 _atom_site_fract_y
 _atom_site_fract_z
 _atom_site_fract_occupancy
 Nb  Nb1  1  0.50000  0.00000  0.80546  1
 Nb  Nb2  1  0.00000  0.50000  0.19454  1
 O  O1  1  0.95832  0.79312  0.26401  1
 O  O2  1  0.20688  0.95832  0.73599  1
 O  O3  1  0.50000  0.00000  0.24470  1
 O  O4  1  0.79312  0.04168  0.73599  1
 O  O5  1  0.04168  0.20688  0.26401  1
 O  O6  1  0.45832  0.29312  0.73599  1
 O  O7  1  0.70688  0.45832  0.26401  1
 O  O8  1  0.00000  0.50000  0.75530  1
 O  O9  1  0.29312  0.54168  0.26401  1
 O  O10  1  0.54168  0.70688  0.73599  1
 V  V1  1  0.00000  0.00000  0.50000  1
 V  V2  1  0.50000  0.50000  0.50000  1
