CIF file written using JARVIS-Tools package.
data_LiCo2P2O8
_symmetry_space_group_name_H-M  'C2'
_cell_length_a       5.06862
_cell_length_b       5.06862
_cell_length_c       6.66172
_cell_angle_alpha    90.2572
_cell_angle_beta     89.7428
_cell_angle_gamma    82.2011

_symmetry_Int_Tables_number  5
_chemical_formula_structural  LiCo2P2O8
_chemical_formula_sum  LiCo2P2O8
_cell_volume  169.5579835919184
_cell_formula_units_Z  1
loop_
  _symmetry_equiv_pos_site_id
 _symmetry_equiv_pos_as_xyz
 1  'x, y, z'
loop_
 _atom_site_type_symbol
 _atom_site_label
 _atom_site_symmetry_multiplicity
 _atom_site_fract_x
 _atom_site_fract_y
 _atom_site_fract_z
 _atom_site_fract_occupancy
 Co  Co1  1  -0.00271  -0.00271  -0.00000  1
 Co  Co2  1  0.50362  0.50362  0.50000  1
 Li  Li1  1  0.49953  0.49953  0.00000  1
 O  O1  1  0.56185  0.69958  0.25705  1
 O  O2  1  0.18790  0.09089  0.22572  1
 O  O3  1  0.63107  0.11520  0.06635  1
 O  O4  1  0.13139  0.58259  0.55156  1
 O  O5  1  0.11520  0.63107  0.93365  1
 O  O6  1  0.58259  0.13139  0.44844  1
 O  O7  1  0.09089  0.18790  0.77428  1
 O  O8  1  0.69958  0.56185  0.74295  1
 P  P1  1  0.00919  0.48990  0.74613  1
 P  P2  1  0.48990  0.00919  0.25387  1
