CIF file written using JARVIS-Tools package.
data_TlGeF3
_symmetry_space_group_name_H-M  'P1'
_cell_length_a       4.56711
_cell_length_b       4.56927
_cell_length_c       4.68074
_cell_angle_alpha    100.127
_cell_angle_beta     99.5606
_cell_angle_gamma    86.3738

_symmetry_Int_Tables_number  1
_chemical_formula_structural  TlGeF3
_chemical_formula_sum  TlGeF3
_cell_volume  94.76371796337477
_cell_formula_units_Z  1
loop_
  _symmetry_equiv_pos_site_id
 _symmetry_equiv_pos_as_xyz
 1  'x, y, z'
loop_
 _atom_site_type_symbol
 _atom_site_label
 _atom_site_symmetry_multiplicity
 _atom_site_fract_x
 _atom_site_fract_y
 _atom_site_fract_z
 _atom_site_fract_occupancy
 F  F1  1  0.93150  0.48928  0.54837  1
 F  F2  1  0.52965  0.53345  0.90355  1
 F  F3  1  0.48440  0.93105  0.54844  1
 Ge  Ge1  1  0.50173  0.50127  0.48707  1
 Tl  Tl1  1  0.05272  0.05496  0.95256  1
