CIF file written using JARVIS-Tools package.
data_Li4Co3O2F6
_symmetry_space_group_name_H-M  'P-1'
_cell_length_a       5.02103
_cell_length_b       5.2633
_cell_length_c       5.78622
_cell_angle_alpha    107.249
_cell_angle_beta     89.235
_cell_angle_gamma    100.014

_symmetry_Int_Tables_number  2
_chemical_formula_structural  Li4Co3O2F6
_chemical_formula_sum  Li4Co3O2F6
_cell_volume  143.69279981492303
_cell_formula_units_Z  1
loop_
  _symmetry_equiv_pos_site_id
 _symmetry_equiv_pos_as_xyz
 1  'x, y, z'
loop_
 _atom_site_type_symbol
 _atom_site_label
 _atom_site_symmetry_multiplicity
 _atom_site_fract_x
 _atom_site_fract_y
 _atom_site_fract_z
 _atom_site_fract_occupancy
 Co  Co1  1  0.50162  0.49575  0.77891  1
 Co  Co2  1  0.49838  0.50425  0.22109  1
 Co  Co3  1  0.00000  0.50000  0.00000  1
 F  F1  1  0.13408  0.20701  0.68775  1
 F  F2  1  0.87211  0.77172  0.82658  1
 F  F3  1  0.40127  0.74494  0.56456  1
 F  F4  1  0.59873  0.25506  0.43544  1
 F  F5  1  0.86592  0.79299  0.31225  1
 F  F6  1  0.12789  0.22828  0.17342  1
 Li  Li1  1  0.25689  0.97425  0.86608  1
 Li  Li2  1  0.76101  -0.00328  0.63307  1
 Li  Li3  1  0.23899  0.00328  0.36693  1
 Li  Li4  1  0.74311  0.02575  0.13392  1
 O  O1  1  0.64227  0.25495  0.93717  1
 O  O2  1  0.35773  0.74505  0.06283  1
