CIF file written using JARVIS-Tools package.
data_Mn2Si2O7
_symmetry_space_group_name_H-M  'Cmcm'
_cell_length_a       4.88393
_cell_length_b       4.88393
_cell_length_c       12.3323
_cell_angle_alpha    90
_cell_angle_beta     90
_cell_angle_gamma    65.8913

_symmetry_Int_Tables_number  63
_chemical_formula_structural  Mn2Si2O7
_chemical_formula_sum  Mn4Si4O4
_cell_volume  268.4992679688307
_cell_formula_units_Z  2
loop_
  _symmetry_equiv_pos_site_id
 _symmetry_equiv_pos_as_xyz
 1  'x, y, z'
loop_
 _atom_site_type_symbol
 _atom_site_label
 _atom_site_symmetry_multiplicity
 _atom_site_fract_x
 _atom_site_fract_y
 _atom_site_fract_z
 _atom_site_fract_occupancy
 Mn  Mn1  1  0.04291  0.95709  0.00000  1
 Mn  Mn2  1  0.04291  0.95709  0.50000  1
 Mn  Mn3  1  0.01450  0.92870  0.25000  1
 Mn  Mn4  1  0.07130  0.98550  0.75000  1
 O  O1  1  0.24423  0.67058  0.13511  1
 O  O2  1  0.24423  0.67058  0.36489  1
 O  O3  1  0.75638  0.15840  0.13511  1
 O  O4  1  0.32942  0.75577  0.86489  1
 O  O5  1  0.28282  0.19706  0.25000  1
 O  O6  1  0.32942  0.75577  0.63511  1
 O  O7  1  0.82366  0.73786  0.53077  1
 O  O8  1  0.82366  0.73786  0.96923  1
 O  O9  1  0.26214  0.17634  0.46923  1
 O  O10  1  0.80294  0.71718  0.75000  1
 O  O11  1  0.84160  0.24362  0.86489  1
 O  O12  1  0.84160  0.24362  0.63511  1
 O  O13  1  0.26214  0.17634  0.03077  1
 O  O14  1  0.75638  0.15840  0.36489  1
 Si  Si1  1  0.70101  0.61520  0.86904  1
 Si  Si2  1  0.70101  0.61520  0.63096  1
 Si  Si3  1  0.38480  0.29899  0.36904  1
 Si  Si4  1  0.38480  0.29899  0.13096  1
