CIF file written using JARVIS-Tools package.
data_Li2AlFeO4
_symmetry_space_group_name_H-M  'Pc'
_cell_length_a       4.99603
_cell_length_b       5.41393
_cell_length_c       6.33384
_cell_angle_alpha    89.9993
_cell_angle_beta     90.0369
_cell_angle_gamma    90.0019

_symmetry_Int_Tables_number  7
_chemical_formula_structural  Li2AlFeO4
_chemical_formula_sum  Li4Al2Fe2O8
_cell_volume  171.31887806690168
_cell_formula_units_Z  2
loop_
  _symmetry_equiv_pos_site_id
 _symmetry_equiv_pos_as_xyz
 1  'x, y, z'
loop_
 _atom_site_type_symbol
 _atom_site_label
 _atom_site_symmetry_multiplicity
 _atom_site_fract_x
 _atom_site_fract_y
 _atom_site_fract_z
 _atom_site_fract_occupancy
 Al  Al1  1  0.99608  0.83264  0.00031  1
 Al  Al2  1  0.49608  0.16679  0.50031  1
 Fe  Fe1  1  0.99784  0.33338  0.75261  1
 Fe  Fe2  1  0.49784  0.66605  0.25261  1
 Li  Li1  1  0.50113  0.66871  0.74978  1
 Li  Li2  1  0.00119  0.83301  0.50202  1
 Li  Li3  1  0.00115  0.33073  0.24979  1
 Li  Li4  1  0.50121  0.16642  0.00201  1
 O  O1  1  0.10266  0.14640  0.99268  1
 O  O2  1  0.10368  0.66847  0.77081  1
 O  O3  1  0.61892  0.31748  0.73189  1
 O  O4  1  0.13841  0.17876  0.50934  1
 O  O5  1  0.60265  0.85303  0.49268  1
 O  O6  1  0.60369  0.33097  0.27080  1
 O  O7  1  0.11891  0.68196  0.23190  1
 O  O8  1  0.63841  0.82068  0.00934  1
