CIF file written using JARVIS-Tools package.
data_SmFeP
_symmetry_space_group_name_H-M  'P4/nmm'
_cell_length_a       3.82235
_cell_length_b       3.82235
_cell_length_c       7.33966
_cell_angle_alpha    90
_cell_angle_beta     90
_cell_angle_gamma    90

_symmetry_Int_Tables_number  129
_chemical_formula_structural  SmFeP
_chemical_formula_sum  Sm2Fe2P2
_cell_volume  107.23494511695628
_cell_formula_units_Z  2
loop_
  _symmetry_equiv_pos_site_id
 _symmetry_equiv_pos_as_xyz
 1  'x, y, z'
loop_
 _atom_site_type_symbol
 _atom_site_label
 _atom_site_symmetry_multiplicity
 _atom_site_fract_x
 _atom_site_fract_y
 _atom_site_fract_z
 _atom_site_fract_occupancy
 Fe  Fe1  1  0.50000  0.50000  0.00000  1
 Fe  Fe2  1  0.00000  0.00000  0.00000  1
 P  P1  1  0.00000  0.50000  0.16214  1
 P  P2  1  0.50000  0.00000  0.83786  1
 Sm  Sm1  1  0.00000  0.50000  0.68630  1
 Sm  Sm2  1  0.50000  0.00000  0.31370  1
