CIF file written using JARVIS-Tools package.
data_Rb3SbO3
_symmetry_space_group_name_H-M  'P2_13'
_cell_length_a       8.71639
_cell_length_b       8.71639
_cell_length_c       8.71639
_cell_angle_alpha    90
_cell_angle_beta     90
_cell_angle_gamma    90

_symmetry_Int_Tables_number  198
_chemical_formula_structural  Rb3SbO3
_chemical_formula_sum  Rb2Sb4O2
_cell_volume  662.2312534317633
_cell_formula_units_Z  4
loop_
  _symmetry_equiv_pos_site_id
 _symmetry_equiv_pos_as_xyz
 1  'x, y, z'
loop_
 _atom_site_type_symbol
 _atom_site_label
 _atom_site_symmetry_multiplicity
 _atom_site_fract_x
 _atom_site_fract_y
 _atom_site_fract_z
 _atom_site_fract_occupancy
 O  O1  1  0.99381  0.70940  0.05578  1
 O  O2  1  0.79060  0.94422  0.49381  1
 O  O3  1  0.70940  0.05578  0.99381  1
 O  O4  1  0.55578  0.50619  0.29060  1
 O  O5  1  0.50619  0.29060  0.55578  1
 O  O6  1  0.49381  0.79060  0.94422  1
 O  O7  1  0.44422  0.00619  0.20940  1
 O  O8  1  0.29060  0.55578  0.50619  1
 O  O9  1  0.20940  0.44422  0.00619  1
 O  O10  1  0.05578  0.99381  0.70940  1
 O  O11  1  0.00619  0.20940  0.44422  1
 O  O12  1  0.94422  0.49381  0.79060  1
 Rb  Rb1  1  0.02591  0.02591  0.02591  1
 Rb  Rb2  1  0.97409  0.52591  0.47409  1
 Rb  Rb3  1  0.78611  0.78611  0.78611  1
 Rb  Rb4  1  0.78232  0.21768  0.71768  1
 Rb  Rb5  1  0.71768  0.78232  0.21768  1
 Rb  Rb6  1  0.71389  0.21389  0.28611  1
 Rb  Rb7  1  0.52591  0.47409  0.97409  1
 Rb  Rb8  1  0.47409  0.97409  0.52591  1
 Rb  Rb9  1  0.28611  0.71389  0.21389  1
 Rb  Rb10  1  0.28232  0.28232  0.28232  1
 Rb  Rb11  1  0.21768  0.71768  0.78232  1
 Rb  Rb12  1  0.21389  0.28611  0.71389  1
 Sb  Sb1  1  0.48727  0.01273  0.98727  1
 Sb  Sb2  1  0.01273  0.98727  0.48727  1
 Sb  Sb3  1  0.98727  0.48727  0.01273  1
 Sb  Sb4  1  0.51273  0.51273  0.51273  1
