CIF file written using JARVIS-Tools package.
data_ScBrO
_symmetry_space_group_name_H-M  'P4/nmm'
_cell_length_a       3.61492
_cell_length_b       3.61492
_cell_length_c       8.36235
_cell_angle_alpha    90
_cell_angle_beta     90
_cell_angle_gamma    90

_symmetry_Int_Tables_number  129
_chemical_formula_structural  ScBrO
_chemical_formula_sum  Sc2Br2O2
_cell_volume  109.27603584312415
_cell_formula_units_Z  2
loop_
  _symmetry_equiv_pos_site_id
 _symmetry_equiv_pos_as_xyz
 1  'x, y, z'
loop_
 _atom_site_type_symbol
 _atom_site_label
 _atom_site_symmetry_multiplicity
 _atom_site_fract_x
 _atom_site_fract_y
 _atom_site_fract_z
 _atom_site_fract_occupancy
 Br  Br1  1  0.00000  0.50000  0.67825  1
 Br  Br2  1  0.50000  0.00000  0.32175  1
 O  O1  1  0.00000  0.00000  0.00000  1
 O  O2  1  0.50000  0.50000  0.00000  1
 Sc  Sc1  1  0.00000  0.50000  0.12473  1
 Sc  Sc2  1  0.50000  0.00000  0.87527  1
