CIF file written using JARVIS-Tools package.
data_LiNi2O4
_symmetry_space_group_name_H-M  'P2/m'
_cell_length_a       2.83729
_cell_length_b       4.96377
_cell_length_c       5.04238
_cell_angle_alpha    109.548
_cell_angle_beta     90.0064
_cell_angle_gamma    90.0085

_symmetry_Int_Tables_number  10
_chemical_formula_structural  LiNi2O4
_chemical_formula_sum  LiNi2O4
_cell_volume  66.92197775100063
_cell_formula_units_Z  1
loop_
  _symmetry_equiv_pos_site_id
 _symmetry_equiv_pos_as_xyz
 1  'x, y, z'
loop_
 _atom_site_type_symbol
 _atom_site_label
 _atom_site_symmetry_multiplicity
 _atom_site_fract_x
 _atom_site_fract_y
 _atom_site_fract_z
 _atom_site_fract_occupancy
 Li  Li1  1  0.50000  -0.00000  0.50000  1
 Ni  Ni1  1  0.50000  0.50000  0.00000  1
 Ni  Ni2  1  0.00000  0.00000  0.00000  1
 O  O1  1  0.49989  0.78051  0.78839  1
 O  O2  1  0.00005  0.25284  0.79355  1
 O  O3  1  -0.00005  0.74716  0.20645  1
 O  O4  1  0.50011  0.21949  0.21161  1
