CIF file written using JARVIS-Tools package.
data_Li3V3CrO8
_symmetry_space_group_name_H-M  'Cm'
_cell_length_a       4.01453
_cell_length_b       6.38711
_cell_length_c       6.44177
_cell_angle_alpha    106.236
_cell_angle_beta     89.9985
_cell_angle_gamma    108.319

_symmetry_Int_Tables_number  8
_chemical_formula_structural  Li3V3CrO8
_chemical_formula_sum  Li3V3CrO8
_cell_volume  149.84948635031947
_cell_formula_units_Z  1
loop_
  _symmetry_equiv_pos_site_id
 _symmetry_equiv_pos_as_xyz
 1  'x, y, z'
loop_
 _atom_site_type_symbol
 _atom_site_label
 _atom_site_symmetry_multiplicity
 _atom_site_fract_x
 _atom_site_fract_y
 _atom_site_fract_z
 _atom_site_fract_occupancy
 Cr  Cr1  1  0.71355  0.43210  0.31101  1
 Li  Li1  1  0.05792  0.12083  0.35986  1
 Li  Li2  1  0.17441  0.35382  0.00519  1
 Li  Li3  1  0.93698  0.87898  0.64054  1
 O  O1  1  0.65124  0.30751  0.00073  1
 O  O2  1  0.56120  0.12739  0.36394  1
 O  O3  1  0.11806  0.24111  0.68781  1
 O  O4  1  0.76753  0.54006  0.64456  1
 O  O5  1  0.22840  0.46180  0.33501  1
 O  O6  1  0.88171  0.76842  0.32242  1
 O  O7  1  0.43977  0.88454  0.63715  1
 O  O8  1  0.34266  0.69031  0.99492  1
 V  V1  1  0.60595  0.21689  0.70126  1
 V  V2  1  0.29102  0.58705  0.70075  1
 V  V3  1  0.39268  0.79035  0.28719  1
