CIF file written using JARVIS-Tools package.
data_LiFe2P2O8
_symmetry_space_group_name_H-M  'P1'
_cell_length_a       4.83765
_cell_length_b       5.15058
_cell_length_c       5.89589
_cell_angle_alpha    86.7621
_cell_angle_beta     107.959
_cell_angle_gamma    102.681

_symmetry_Int_Tables_number  1
_chemical_formula_structural  LiFe2P2O8
_chemical_formula_sum  LiFe2P2O8
_cell_volume  136.33018334018726
_cell_formula_units_Z  1
loop_
  _symmetry_equiv_pos_site_id
 _symmetry_equiv_pos_as_xyz
 1  'x, y, z'
loop_
 _atom_site_type_symbol
 _atom_site_label
 _atom_site_symmetry_multiplicity
 _atom_site_fract_x
 _atom_site_fract_y
 _atom_site_fract_z
 _atom_site_fract_occupancy
 Fe  Fe1  1  -0.01445  0.22713  0.35533  1
 Fe  Fe2  1  0.99453  0.76202  0.64755  1
 Li  Li1  1  0.33706  0.34211  -0.01987  1
 O  O1  1  0.19753  0.63495  0.40578  1
 O  O2  1  0.30491  0.13265  0.67915  1
 O  O3  1  0.24393  0.08547  0.20580  1
 O  O4  1  0.25174  0.67605  -0.01309  1
 O  O5  1  0.73845  0.30986  0.01952  1
 O  O6  1  0.75091  0.90592  0.79664  1
 O  O7  1  0.68750  0.86784  0.33517  1
 O  O8  1  0.79848  0.35681  0.60278  1
 P  P1  1  0.34005  0.81486  0.23054  1
 P  P2  1  0.65451  0.17132  0.77535  1
