CIF file written using JARVIS-Tools package.
data_ZnB8H8N4
_symmetry_space_group_name_H-M  'P4_2/nmc'
_cell_length_a       6.94885
_cell_length_b       6.94885
_cell_length_c       9.37521
_cell_angle_alpha    90
_cell_angle_beta     90
_cell_angle_gamma    90

_symmetry_Int_Tables_number  137
_chemical_formula_structural  ZnB8H8N4
_chemical_formula_sum  Zn2B6H6N8
_cell_volume  452.69670290224525
_cell_formula_units_Z  2
loop_
  _symmetry_equiv_pos_site_id
 _symmetry_equiv_pos_as_xyz
 1  'x, y, z'
loop_
 _atom_site_type_symbol
 _atom_site_label
 _atom_site_symmetry_multiplicity
 _atom_site_fract_x
 _atom_site_fract_y
 _atom_site_fract_z
 _atom_site_fract_occupancy
 B  B1  1  0.25000  0.57299  0.20633  1
 B  B2  1  0.07299  0.75000  0.29367  1
 B  B3  1  0.42701  0.75000  0.29367  1
 B  B4  1  0.75000  0.07299  0.79367  1
 B  B5  1  0.75000  0.42701  0.79367  1
 B  B6  1  0.57299  0.25000  0.70633  1
 B  B7  1  0.25000  0.92701  0.20633  1
 B  B8  1  0.75000  0.12491  0.61018  1
 B  B9  1  0.92701  0.25000  0.70633  1
 B  B10  1  0.37509  0.75000  0.11018  1
 B  B11  1  0.75000  0.37509  0.61018  1
 B  B12  1  0.87509  0.25000  0.88982  1
 B  B13  1  0.62491  0.25000  0.88982  1
 B  B14  1  0.25000  0.87509  0.38982  1
 B  B15  1  0.25000  0.62491  0.38982  1
 B  B16  1  0.12491  0.75000  0.11018  1
 H  H1  1  0.75000  0.90136  0.80556  1
 H  H2  1  0.25000  0.40136  0.19444  1
 H  H3  1  0.90136  0.75000  0.30556  1
 H  H4  1  0.59864  0.75000  0.30556  1
 H  H5  1  0.75000  0.59864  0.80556  1
 H  H6  1  0.09864  0.25000  0.69444  1
 H  H7  1  0.40136  0.25000  0.69444  1
 H  H8  1  0.25000  0.09864  0.19444  1
 H  H9  1  0.00765  0.75000  0.01732  1
 H  H10  1  0.25000  -0.00765  0.48268  1
 H  H11  1  0.75000  0.49235  0.51732  1
 H  H12  1  -0.00765  0.25000  0.98268  1
 H  H13  1  0.50765  0.25000  0.98268  1
 H  H14  1  0.25000  0.50765  0.48268  1
 H  H15  1  0.49235  0.75000  0.01732  1
 H  H16  1  0.75000  0.00765  0.51732  1
 N  N1  1  0.75000  0.01292  0.12576  1
 N  N2  1  0.75000  0.48708  0.12576  1
 N  N3  1  0.51292  0.25000  0.37424  1
 N  N4  1  0.01292  0.75000  0.62576  1
 N  N5  1  0.25000  0.98708  0.87424  1
 N  N6  1  0.25000  0.51292  0.87424  1
 N  N7  1  0.98708  0.25000  0.37424  1
 N  N8  1  0.48708  0.75000  0.62576  1
 Zn  Zn1  1  0.75000  0.25000  0.25000  1
 Zn  Zn2  1  0.25000  0.75000  0.75000  1
