CIF file written using JARVIS-Tools package.
data_Na2LuPCO7
_symmetry_space_group_name_H-M  'P2_1/m'
_cell_length_a       5.12042
_cell_length_b       6.86325
_cell_length_c       9.24741
_cell_angle_alpha    90
_cell_angle_beta     91.046
_cell_angle_gamma    90

_symmetry_Int_Tables_number  11
_chemical_formula_structural  Na2LuPCO7
_chemical_formula_sum  Na4Lu2P2C2O4
_cell_volume  324.9245779424177
_cell_formula_units_Z  2
loop_
  _symmetry_equiv_pos_site_id
 _symmetry_equiv_pos_as_xyz
 1  'x, y, z'
loop_
 _atom_site_type_symbol
 _atom_site_label
 _atom_site_symmetry_multiplicity
 _atom_site_fract_x
 _atom_site_fract_y
 _atom_site_fract_z
 _atom_site_fract_occupancy
 C  C1  1  0.72746  0.75000  0.07902  1
 C  C2  1  0.27254  0.25000  0.92098  1
 Lu  Lu1  1  0.78265  0.75000  0.36773  1
 Lu  Lu2  1  0.21735  0.25000  0.63227  1
 Na  Na1  1  0.23686  0.00775  0.21364  1
 Na  Na2  1  0.23686  0.49225  0.21364  1
 Na  Na3  1  0.76314  0.50775  0.78636  1
 Na  Na4  1  0.76314  0.99225  0.78636  1
 O  O1  1  0.30897  0.25000  0.05584  1
 O  O2  1  0.04098  0.25000  0.85807  1
 O  O3  1  0.53236  0.75000  0.17100  1
 O  O4  1  0.80305  0.06524  0.34431  1
 O  O5  1  0.80305  0.43476  0.34431  1
 O  O6  1  0.95902  0.75000  0.14193  1
 O  O7  1  0.39379  0.25000  0.41491  1
 O  O8  1  0.19695  0.93476  0.65569  1
 O  O9  1  0.78820  0.25000  0.58101  1
 O  O10  1  0.19695  0.56524  0.65569  1
 O  O11  1  0.21180  0.75000  0.41899  1
 O  O12  1  0.46764  0.25000  0.82900  1
 O  O13  1  0.60621  0.75000  0.58509  1
 O  O14  1  0.69103  0.75000  0.94416  1
 P  P1  1  0.30117  0.75000  0.58212  1
 P  P2  1  0.69883  0.25000  0.41788  1
