CIF file written using JARVIS-Tools package.
data_Mn4OF6
_symmetry_space_group_name_H-M  'P6_3mc'
_cell_length_a       7.35382
_cell_length_b       7.35382
_cell_length_c       5.53911
_cell_angle_alpha    90
_cell_angle_beta     90
_cell_angle_gamma    120

_symmetry_Int_Tables_number  186
_chemical_formula_structural  Mn4OF6
_chemical_formula_sum  Mn8O2F2
_cell_volume  259.4154784985537
_cell_formula_units_Z  2
loop_
  _symmetry_equiv_pos_site_id
 _symmetry_equiv_pos_as_xyz
 1  'x, y, z'
loop_
 _atom_site_type_symbol
 _atom_site_label
 _atom_site_symmetry_multiplicity
 _atom_site_fract_x
 _atom_site_fract_y
 _atom_site_fract_z
 _atom_site_fract_occupancy
 F  F1  1  0.12908  0.87092  0.39266  1
 F  F2  1  0.45865  0.91730  0.72687  1
 F  F3  1  0.54135  0.08270  0.22687  1
 F  F4  1  0.87092  0.12908  0.89266  1
 F  F5  1  0.54135  0.45865  0.22687  1
 F  F6  1  0.25816  0.12908  0.89266  1
 F  F7  1  0.12908  0.25816  0.39266  1
 F  F8  1  0.87092  0.74184  0.89266  1
 F  F9  1  0.08270  0.54135  0.72687  1
 F  F10  1  0.45865  0.54135  0.72687  1
 F  F11  1  0.74184  0.87092  0.39266  1
 F  F12  1  0.91730  0.45865  0.22687  1
 Mn  Mn1  1  0.63256  0.81628  0.00091  1
 Mn  Mn2  1  0.33333  0.66667  0.48259  1
 Mn  Mn3  1  0.18372  0.81628  0.00091  1
 Mn  Mn4  1  0.18372  0.36744  0.00091  1
 Mn  Mn5  1  0.81628  0.63256  0.50091  1
 Mn  Mn6  1  0.66667  0.33333  0.98259  1
 Mn  Mn7  1  0.81628  0.18372  0.50091  1
 Mn  Mn8  1  0.36744  0.18372  0.50091  1
 O  O1  1  0.33333  0.66667  0.12971  1
 O  O2  1  0.66667  0.33333  0.62971  1
