CIF file written using JARVIS-Tools package.
data_Li5MnF8
_symmetry_space_group_name_H-M  'Immm'
_cell_length_a       5.95001
_cell_length_b       5.95001
_cell_length_c       5.58266
_cell_angle_alpha    117.978
_cell_angle_beta     62.0221
_cell_angle_gamma    122.383

_symmetry_Int_Tables_number  71
_chemical_formula_structural  Li5MnF8
_chemical_formula_sum  Li5MnF8
_cell_volume  140.96879607630427
_cell_formula_units_Z  1
loop_
  _symmetry_equiv_pos_site_id
 _symmetry_equiv_pos_as_xyz
 1  'x, y, z'
loop_
 _atom_site_type_symbol
 _atom_site_label
 _atom_site_symmetry_multiplicity
 _atom_site_fract_x
 _atom_site_fract_y
 _atom_site_fract_z
 _atom_site_fract_occupancy
 F  F1  1  0.27487  0.72513  0.22513  1
 F  F2  1  0.23439  0.23439  0.23112  1
 F  F3  1  0.24037  0.75963  0.75963  1
 F  F4  1  0.23439  0.23439  0.76888  1
 F  F5  1  0.76561  0.76561  0.23112  1
 F  F6  1  0.75963  0.24037  0.24037  1
 F  F7  1  0.76561  0.76561  0.76888  1
 F  F8  1  0.72513  0.27487  0.77487  1
 Li  Li1  1  0.00000  0.50000  -0.00000  1
 Li  Li2  1  -0.00000  0.50000  0.50000  1
 Li  Li3  1  0.50000  0.50000  -0.00000  1
 Li  Li4  1  0.50000  0.00000  -0.00000  1
 Li  Li5  1  0.50000  0.00000  0.50000  1
 Mn  Mn1  1  0.00000  0.00000  0.00000  1
