CIF file written using JARVIS-Tools package.
data_Li2MnBPO7
_symmetry_space_group_name_H-M  'P2_1/m'
_cell_length_a       5.03038
_cell_length_b       6.16701
_cell_length_c       8.54329
_cell_angle_alpha    90
_cell_angle_beta     94.1057
_cell_angle_gamma    90

_symmetry_Int_Tables_number  11
_chemical_formula_structural  Li2MnBPO7
_chemical_formula_sum  Li4Mn2B2P2O4
_cell_volume  264.3532426088833
_cell_formula_units_Z  2
loop_
  _symmetry_equiv_pos_site_id
 _symmetry_equiv_pos_as_xyz
 1  'x, y, z'
loop_
 _atom_site_type_symbol
 _atom_site_label
 _atom_site_symmetry_multiplicity
 _atom_site_fract_x
 _atom_site_fract_y
 _atom_site_fract_z
 _atom_site_fract_occupancy
 B  B1  1  0.26586  0.25000  0.05723  1
 B  B2  1  0.73414  0.75000  0.94277  1
 Li  Li1  1  0.76493  0.48320  0.19909  1
 Li  Li2  1  0.76493  0.01680  0.19909  1
 Li  Li3  1  0.23507  0.51680  0.80091  1
 Li  Li4  1  0.23507  0.98320  0.80091  1
 Mn  Mn1  1  0.21110  0.25000  0.33191  1
 Mn  Mn2  1  0.78890  0.75000  0.66809  1
 O  O1  1  0.70163  0.75000  0.09412  1
 O  O2  1  0.97758  0.75000  0.86876  1
 O  O3  1  0.46953  0.25000  0.18245  1
 O  O4  1  0.18697  0.94503  0.32392  1
 O  O5  1  0.18697  0.55497  0.32392  1
 O  O6  1  0.02242  0.25000  0.13124  1
 O  O7  1  0.58018  0.75000  0.46888  1
 O  O8  1  0.81303  0.05497  0.67608  1
 O  O9  1  0.13836  0.75000  0.58399  1
 O  O10  1  0.81303  0.44503  0.67608  1
 O  O11  1  0.86164  0.25000  0.41601  1
 O  O12  1  0.53047  0.75000  0.81755  1
 O  O13  1  0.41982  0.25000  0.53112  1
 O  O14  1  0.29837  0.25000  0.90588  1
 P  P1  1  0.72563  0.25000  0.57195  1
 P  P2  1  0.27437  0.75000  0.42805  1
