CIF file written using JARVIS-Tools package.
data_Ho2V2O7
_symmetry_space_group_name_H-M  'C2/m'
_cell_length_a       5.76418
_cell_length_b       5.76418
_cell_length_c       5.16397
_cell_angle_alpha    83.7909
_cell_angle_beta     96.2091
_cell_angle_gamma    70.8246

_symmetry_Int_Tables_number  12
_chemical_formula_structural  Ho2V2O7
_chemical_formula_sum  Ho2V2O7
_cell_volume  159.20989652419914
_cell_formula_units_Z  1
loop_
  _symmetry_equiv_pos_site_id
 _symmetry_equiv_pos_as_xyz
 1  'x, y, z'
loop_
 _atom_site_type_symbol
 _atom_site_label
 _atom_site_symmetry_multiplicity
 _atom_site_fract_x
 _atom_site_fract_y
 _atom_site_fract_z
 _atom_site_fract_occupancy
 Ho  Ho1  1  0.31120  0.31120  0.50000  1
 Ho  Ho2  1  0.68880  0.68880  0.50000  1
 O  O1  1  0.06832  0.60735  0.71014  1
 O  O2  1  0.39265  0.93168  0.71014  1
 O  O3  1  0.41803  0.58197  0.22307  1
 O  O4  1  0.58197  0.41803  0.77693  1
 O  O5  1  0.00000  0.00000  0.00000  1
 O  O6  1  0.60735  0.06832  0.28986  1
 O  O7  1  0.93168  0.39265  0.28986  1
 V  V1  1  0.24305  0.75695  0.90269  1
 V  V2  1  0.75695  0.24305  0.09731  1
