CIF file written using JARVIS-Tools package.
data_V4O3F9
_symmetry_space_group_name_H-M  'P1'
_cell_length_a       5.12801
_cell_length_b       5.25076
_cell_length_c       8.83035
_cell_angle_alpha    71.6254
_cell_angle_beta     106.082
_cell_angle_gamma    118.707

_symmetry_Int_Tables_number  1
_chemical_formula_structural  V4O3F9
_chemical_formula_sum  V4O3F9
_cell_volume  195.6441515023541
_cell_formula_units_Z  1
loop_
  _symmetry_equiv_pos_site_id
 _symmetry_equiv_pos_as_xyz
 1  'x, y, z'
loop_
 _atom_site_type_symbol
 _atom_site_label
 _atom_site_symmetry_multiplicity
 _atom_site_fract_x
 _atom_site_fract_y
 _atom_site_fract_z
 _atom_site_fract_occupancy
 F  F1  1  0.07303  0.32994  0.43162  1
 F  F2  1  0.05594  0.92317  0.81771  1
 F  F3  1  0.56670  0.82455  0.93519  1
 F  F4  1  0.44561  0.58945  0.67616  1
 F  F5  1  0.42988  0.16710  0.06695  1
 F  F6  1  0.52545  0.86727  0.37425  1
 F  F7  1  0.97593  0.62507  0.11827  1
 F  F8  1  0.93742  0.07653  0.18573  1
 F  F9  1  0.93071  0.68116  0.56563  1
 O  O1  1  0.04081  0.37530  0.87512  1
 O  O2  1  0.46888  0.13369  0.62432  1
 O  O3  1  0.57889  0.41610  0.32560  1
 V  V1  1  0.24076  0.73864  0.75350  1
 V  V2  1  0.49967  0.46043  0.50391  1
 V  V3  1  0.73439  0.26263  0.25343  1
 V  V4  1  -0.00408  0.02900  -0.00739  1
