CIF file written using JARVIS-Tools package.
data_Li3VF6
_symmetry_space_group_name_H-M  'P-31m'
_cell_length_a       4.87967
_cell_length_b       4.87967
_cell_length_c       4.87952
_cell_angle_alpha    89.9933
_cell_angle_beta     90.0067
_cell_angle_gamma    60.0032

_symmetry_Int_Tables_number  162
_chemical_formula_structural  Li3VF6
_chemical_formula_sum  Li3VF6
_cell_volume  100.62404131750782
_cell_formula_units_Z  1
loop_
  _symmetry_equiv_pos_site_id
 _symmetry_equiv_pos_as_xyz
 1  'x, y, z'
loop_
 _atom_site_type_symbol
 _atom_site_label
 _atom_site_symmetry_multiplicity
 _atom_site_fract_x
 _atom_site_fract_y
 _atom_site_fract_z
 _atom_site_fract_occupancy
 F  F1  1  0.31052  -0.00001  0.25996  1
 F  F2  1  0.00001  0.68948  0.25996  1
 F  F3  1  0.31049  0.68951  0.74016  1
 F  F4  1  0.68949  0.31051  0.25985  1
 F  F5  1  -0.00003  0.31054  0.74004  1
 F  F6  1  0.68946  0.00003  0.74004  1
 Li  Li1  1  0.66668  0.66670  0.50000  1
 Li  Li2  1  0.33330  0.33332  0.50000  1
 Li  Li3  1  -0.00001  0.00001  0.50000  1
 V  V1  1  -0.00000  0.00000  -0.00000  1
