CIF file written using JARVIS-Tools package.
data_CNCl
_symmetry_space_group_name_H-M  'C2/c'
_cell_length_a       7.40515
_cell_length_b       7.40515
_cell_length_c       7.33771
_cell_angle_alpha    64.2716
_cell_angle_beta     64.2717
_cell_angle_gamma    59.7605

_symmetry_Int_Tables_number  15
_chemical_formula_structural  CNCl
_chemical_formula_sum  C6N6Cl6
_cell_volume  300.9165213431467
_cell_formula_units_Z  6
loop_
  _symmetry_equiv_pos_site_id
 _symmetry_equiv_pos_as_xyz
 1  'x, y, z'
loop_
 _atom_site_type_symbol
 _atom_site_label
 _atom_site_symmetry_multiplicity
 _atom_site_fract_x
 _atom_site_fract_y
 _atom_site_fract_z
 _atom_site_fract_occupancy
 C  C1  1  0.84569  0.15431  0.25000  1
 C  C2  1  0.49262  0.32625  0.26222  1
 C  C3  1  0.50738  0.67375  0.73778  1
 C  C4  1  0.67375  0.50738  0.23778  1
 C  C5  1  0.15431  0.84569  0.75000  1
 C  C6  1  0.32625  0.49262  0.76222  1
 Cl  Cl1  1  0.74392  0.67627  0.72158  1
 Cl  Cl2  1  0.32373  0.25608  0.77842  1
 Cl  Cl3  1  0.92233  0.07767  0.75000  1
 Cl  Cl4  1  0.07767  0.92233  0.25000  1
 Cl  Cl5  1  0.25608  0.32373  0.27842  1
 Cl  Cl6  1  0.67627  0.74392  0.22158  1
 N  N1  1  0.51494  0.48506  0.75000  1
 N  N2  1  0.14094  0.66775  0.76169  1
 N  N3  1  0.66775  0.14094  0.26169  1
 N  N4  1  0.33225  0.85906  0.73831  1
 N  N5  1  0.48506  0.51494  0.25000  1
 N  N6  1  0.85906  0.33225  0.23831  1
