CIF file written using JARVIS-Tools package.
data_Ge2S3I2
_symmetry_space_group_name_H-M  'P-3'
_cell_length_a       10.5651
_cell_length_b       10.5651
_cell_length_c       9.47685
_cell_angle_alpha    90
_cell_angle_beta     90
_cell_angle_gamma    120

_symmetry_Int_Tables_number  147
_chemical_formula_structural  Ge2S3I2
_chemical_formula_sum  Ge8S2I8
_cell_volume  916.0902455101941
_cell_formula_units_Z  4
loop_
  _symmetry_equiv_pos_site_id
 _symmetry_equiv_pos_as_xyz
 1  'x, y, z'
loop_
 _atom_site_type_symbol
 _atom_site_label
 _atom_site_symmetry_multiplicity
 _atom_site_fract_x
 _atom_site_fract_y
 _atom_site_fract_z
 _atom_site_fract_occupancy
 Ge  Ge1  1  0.71484  0.54244  0.26714  1
 Ge  Ge2  1  0.82761  0.28516  0.26714  1
 Ge  Ge3  1  0.33333  0.66667  0.43245  1
 Ge  Ge4  1  0.28516  0.45756  0.73286  1
 Ge  Ge5  1  0.17239  0.71484  0.73286  1
 Ge  Ge6  1  0.54244  0.82761  0.73286  1
 Ge  Ge7  1  0.66667  0.33333  0.56755  1
 Ge  Ge8  1  0.45756  0.17239  0.26714  1
 I  I1  1  0.66667  0.33333  0.83408  1
 I  I2  1  0.79444  0.01625  0.81894  1
 I  I3  1  -0.01625  0.77820  0.81894  1
 I  I4  1  0.22180  0.20556  0.81894  1
 I  I5  1  0.20556  -0.01625  0.18106  1
 I  I6  1  0.77820  0.79444  0.18106  1
 I  I7  1  0.01625  0.22180  0.18106  1
 I  I8  1  0.33333  0.66667  0.16592  1
 S  S1  1  0.84149  0.28140  0.50343  1
 S  S2  1  0.56009  0.84149  0.49657  1
 S  S3  1  0.15851  0.71860  0.49657  1
 S  S4  1  0.28140  0.43991  0.49657  1
 S  S5  1  0.89333  0.50768  0.17755  1
 S  S6  1  0.50768  0.61435  0.82245  1
 S  S7  1  0.61435  0.10667  0.17755  1
 S  S8  1  0.49232  0.38565  0.17755  1
 S  S9  1  0.10667  0.49232  0.82245  1
 S  S10  1  0.38565  0.89333  0.82245  1
 S  S11  1  0.43991  0.15851  0.50343  1
 S  S12  1  0.71860  0.56009  0.50343  1
