CIF file written using JARVIS-Tools package.
data_MnOF
_symmetry_space_group_name_H-M  'P2_1/c'
_cell_length_a       5.08747
_cell_length_b       4.58528
_cell_length_c       5.66859
_cell_angle_alpha    90
_cell_angle_beta     89.9875
_cell_angle_gamma    90

_symmetry_Int_Tables_number  14
_chemical_formula_structural  MnOF
_chemical_formula_sum  Mn4O4F4
_cell_volume  132.23398858657222
_cell_formula_units_Z  4
loop_
  _symmetry_equiv_pos_site_id
 _symmetry_equiv_pos_as_xyz
 1  'x, y, z'
loop_
 _atom_site_type_symbol
 _atom_site_label
 _atom_site_symmetry_multiplicity
 _atom_site_fract_x
 _atom_site_fract_y
 _atom_site_fract_z
 _atom_site_fract_occupancy
 F  F1  1  0.42785  0.24191  0.87955  1
 F  F2  1  0.42785  0.25809  0.37955  1
 F  F3  1  0.57215  0.74191  0.62045  1
 F  F4  1  0.57215  0.75809  0.12045  1
 Mn  Mn1  1  0.22455  0.51857  0.65554  1
 Mn  Mn2  1  0.22455  0.98143  0.15554  1
 Mn  Mn3  1  0.77545  0.01857  0.84446  1
 Mn  Mn4  1  0.77545  0.48143  0.34446  1
 O  O1  1  0.08223  0.78140  0.88560  1
 O  O2  1  0.08223  0.71860  0.38560  1
 O  O3  1  0.91777  0.28140  0.61440  1
 O  O4  1  0.91777  0.21860  0.11440  1
