CIF file written using JARVIS-Tools package.
data_V4P2O13
_symmetry_space_group_name_H-M  'P1'
_cell_length_a       4.90515
_cell_length_b       4.90952
_cell_length_c       8.68492
_cell_angle_alpha    88.7565
_cell_angle_beta     100.034
_cell_angle_gamma    99.0675

_symmetry_Int_Tables_number  1
_chemical_formula_structural  V4P2O13
_chemical_formula_sum  V4P2O3
_cell_volume  203.37330036896734
_cell_formula_units_Z  1
loop_
  _symmetry_equiv_pos_site_id
 _symmetry_equiv_pos_as_xyz
 1  'x, y, z'
loop_
 _atom_site_type_symbol
 _atom_site_label
 _atom_site_symmetry_multiplicity
 _atom_site_fract_x
 _atom_site_fract_y
 _atom_site_fract_z
 _atom_site_fract_occupancy
 O  O1  1  0.44805  0.55824  0.56885  1
 O  O2  1  -0.00071  0.73001  0.43399  1
 O  O3  1  0.79678  0.84690  0.11534  1
 O  O4  1  0.93958  0.51340  0.72320  1
 O  O5  1  0.11649  0.27288  0.35766  1
 O  O6  1  0.59547  0.28439  0.20783  1
 O  O7  1  0.70765  0.07920  0.52781  1
 O  O8  1  0.40623  0.72194  0.28963  1
 O  O9  1  0.80009  0.97906  0.82918  1
 O  O10  1  0.22890  0.83145  0.98942  1
 O  O11  1  0.25911  0.03551  0.68651  1
 O  O12  1  0.08114  0.29033  0.04372  1
 O  O13  1  0.52867  0.42573  0.89656  1
 P  P1  1  0.24340  0.56599  0.41268  1
 P  P2  1  0.98812  0.98632  0.99862  1
 V  V1  1  0.59522  0.27462  0.71402  1
 V  V2  1  0.43785  0.53134  0.06543  1
 V  V3  1  0.93753  0.83784  0.64219  1
 V  V4  1  0.74995  0.04261  0.31818  1
