CIF file written using JARVIS-Tools package.
data_LiMnO2
_symmetry_space_group_name_H-M  'P-1'
_cell_length_a       5.11618
_cell_length_b       5.78399
_cell_length_c       7.17291
_cell_angle_alpha    90.9549
_cell_angle_beta     92.3971
_cell_angle_gamma    90.8726

_symmetry_Int_Tables_number  2
_chemical_formula_structural  LiMnO2
_chemical_formula_sum  Li6Mn6O2
_cell_volume  212.01822610111705
_cell_formula_units_Z  6
loop_
  _symmetry_equiv_pos_site_id
 _symmetry_equiv_pos_as_xyz
 1  'x, y, z'
loop_
 _atom_site_type_symbol
 _atom_site_label
 _atom_site_symmetry_multiplicity
 _atom_site_fract_x
 _atom_site_fract_y
 _atom_site_fract_z
 _atom_site_fract_occupancy
 Li  Li1  1  0.40939  0.12686  0.17601  1
 Li  Li2  1  0.59061  0.87314  0.82399  1
 Li  Li3  1  0.91279  0.37083  0.16749  1
 Li  Li4  1  0.24529  0.88026  0.50793  1
 Li  Li5  1  0.08721  0.62917  0.83251  1
 Li  Li6  1  0.75471  0.11974  0.49207  1
 Mn  Mn1  1  0.40870  0.62305  0.16273  1
 Mn  Mn2  1  0.59130  0.37695  0.83727  1
 Mn  Mn3  1  0.91653  0.88535  0.16761  1
 Mn  Mn4  1  0.24277  0.36662  0.49468  1
 Mn  Mn5  1  0.08347  0.11465  0.83239  1
 Mn  Mn6  1  0.75723  0.63338  0.50532  1
 O  O1  1  0.60243  0.86081  0.32453  1
 O  O2  1  0.08409  0.13024  0.33636  1
 O  O3  1  0.26632  0.37752  0.99676  1
 O  O4  1  0.23356  0.86746  0.01566  1
 O  O5  1  0.73368  0.62248  0.00324  1
 O  O6  1  0.76644  0.13254  0.98434  1
 O  O7  1  0.39757  0.13919  0.67547  1
 O  O8  1  0.43340  0.60629  0.66165  1
 O  O9  1  0.91543  0.38023  0.66142  1
 O  O10  1  0.91591  0.86976  0.66364  1
 O  O11  1  0.56660  0.39371  0.33835  1
 O  O12  1  0.08457  0.61977  0.33858  1
