CIF file written using JARVIS-Tools package.
data_Na2TmPCO7
_symmetry_space_group_name_H-M  'P2_1/m'
_cell_length_a       5.07092
_cell_length_b       6.9056
_cell_length_c       9.30514
_cell_angle_alpha    90
_cell_angle_beta     91.2241
_cell_angle_gamma    90

_symmetry_Int_Tables_number  11
_chemical_formula_structural  Na2TmPCO7
_chemical_formula_sum  Na4Tm2P2C2O4
_cell_volume  325.7704905558345
_cell_formula_units_Z  2
loop_
  _symmetry_equiv_pos_site_id
 _symmetry_equiv_pos_as_xyz
 1  'x, y, z'
loop_
 _atom_site_type_symbol
 _atom_site_label
 _atom_site_symmetry_multiplicity
 _atom_site_fract_x
 _atom_site_fract_y
 _atom_site_fract_z
 _atom_site_fract_occupancy
 C  C1  1  0.72747  0.75000  0.07999  1
 C  C2  1  0.27253  0.25000  0.92001  1
 Na  Na1  1  0.23479  0.49023  0.21199  1
 Na  Na2  1  0.23479  0.00977  0.21199  1
 Na  Na3  1  0.76521  0.50977  0.78801  1
 Na  Na4  1  0.76521  0.99023  0.78801  1
 O  O1  1  0.30738  0.25000  0.05427  1
 O  O2  1  0.03961  0.25000  0.85623  1
 O  O3  1  0.52925  0.75000  0.17014  1
 O  O4  1  0.80534  0.06624  0.34457  1
 O  O5  1  0.80534  0.43376  0.34457  1
 O  O6  1  0.96039  0.75000  0.14377  1
 O  O7  1  0.38843  0.25000  0.40790  1
 O  O8  1  0.61157  0.75000  0.59210  1
 O  O9  1  0.19466  0.93376  0.65543  1
 O  O10  1  0.19466  0.56624  0.65543  1
 O  O11  1  0.22367  0.75000  0.42036  1
 O  O12  1  0.47075  0.25000  0.82986  1
 O  O13  1  0.77633  0.25000  0.57964  1
 O  O14  1  0.69262  0.75000  0.94573  1
 P  P1  1  0.30388  0.75000  0.58438  1
 P  P2  1  0.69612  0.25000  0.41562  1
 Tm  Tm1  1  0.22188  0.25000  0.63020  1
 Tm  Tm2  1  0.77812  0.75000  0.36980  1
