CIF file written using JARVIS-Tools package.
data_Mn6O7F5
_symmetry_space_group_name_H-M  'P1'
_cell_length_a       4.56164
_cell_length_b       5.51575
_cell_length_c       7.65511
_cell_angle_alpha    86.5363
_cell_angle_beta     89.4859
_cell_angle_gamma    89.2136

_symmetry_Int_Tables_number  1
_chemical_formula_structural  Mn6O7F5
_chemical_formula_sum  Mn6O7F5
_cell_volume  192.23298200036146
_cell_formula_units_Z  1
loop_
  _symmetry_equiv_pos_site_id
 _symmetry_equiv_pos_as_xyz
 1  'x, y, z'
loop_
 _atom_site_type_symbol
 _atom_site_label
 _atom_site_symmetry_multiplicity
 _atom_site_fract_x
 _atom_site_fract_y
 _atom_site_fract_z
 _atom_site_fract_occupancy
 F  F1  1  0.21198  0.03004  0.77253  1
 F  F2  1  0.28576  0.87562  0.42267  1
 F  F3  1  0.71053  0.80479  0.89524  1
 F  F4  1  0.20476  0.37113  0.43180  1
 F  F5  1  0.30119  0.18966  0.11928  1
 Mn  Mn1  1  0.48775  0.49868  0.99685  1
 Mn  Mn2  1  0.97824  0.35247  0.67957  1
 Mn  Mn3  1  0.97253  0.66651  0.31775  1
 Mn  Mn4  1  0.51054  0.81883  0.65540  1
 Mn  Mn5  1  0.54599  0.17712  0.34478  1
 Mn  Mn6  1  0.99376  0.00182  0.01116  1
 O  O1  1  0.18587  0.70484  0.09966  1
 O  O2  1  0.30795  0.53716  0.76529  1
 O  O3  1  0.80853  0.29023  0.90762  1
 O  O4  1  0.79544  0.96259  0.23319  1
 O  O5  1  0.80567  0.62989  0.55106  1
 O  O6  1  0.69195  0.46241  0.22800  1
 O  O7  1  0.70156  0.12621  0.56814  1
