CIF file written using JARVIS-Tools package.
data_Li3TiV3O8
_symmetry_space_group_name_H-M  'Cm'
_cell_length_a       4.02825
_cell_length_b       6.38175
_cell_length_c       6.52762
_cell_angle_alpha    106.681
_cell_angle_beta     89.9993
_cell_angle_gamma    108.397

_symmetry_Int_Tables_number  8
_chemical_formula_structural  Li3TiV3O8
_chemical_formula_sum  Li3TiV3O8
_cell_volume  151.77075025166423
_cell_formula_units_Z  1
loop_
  _symmetry_equiv_pos_site_id
 _symmetry_equiv_pos_as_xyz
 1  'x, y, z'
loop_
 _atom_site_type_symbol
 _atom_site_label
 _atom_site_symmetry_multiplicity
 _atom_site_fract_x
 _atom_site_fract_y
 _atom_site_fract_z
 _atom_site_fract_occupancy
 Li  Li1  1  0.05957  0.11552  0.35808  1
 Li  Li2  1  0.82473  0.64585  0.99642  1
 Li  Li3  1  0.94332  0.88303  0.64155  1
 O  O1  1  0.65955  0.31550  0.00481  1
 O  O2  1  0.56107  0.11850  0.35581  1
 O  O3  1  0.11673  0.22984  0.67439  1
 O  O4  1  0.77710  0.55060  0.67114  1
 O  O5  1  0.22679  0.44997  0.34994  1
 O  O6  1  0.88299  0.76234  0.31526  1
 O  O7  1  0.43792  0.87222  0.63245  1
 O  O8  1  0.34743  0.69125  0.99894  1
 Ti  Ti1  1  0.70703  0.41046  0.28859  1
 V  V1  1  0.60761  0.21162  0.69308  1
 V  V2  1  0.29008  0.57657  0.70203  1
 V  V3  1  0.38978  0.77593  0.29930  1
