CIF file written using JARVIS-Tools package.
data_H2C
_symmetry_space_group_name_H-M  'Pnma'
_cell_length_a       6.93882
_cell_length_b       4.84954
_cell_length_c       2.55695
_cell_angle_alpha    90
_cell_angle_beta     90
_cell_angle_gamma    90

_symmetry_Int_Tables_number  62
_chemical_formula_structural  H2C
_chemical_formula_sum  H8C4
_cell_volume  86.04146894424876
_cell_formula_units_Z  4
loop_
  _symmetry_equiv_pos_site_id
 _symmetry_equiv_pos_as_xyz
 1  'x, y, z'
loop_
 _atom_site_type_symbol
 _atom_site_label
 _atom_site_symmetry_multiplicity
 _atom_site_fract_x
 _atom_site_fract_y
 _atom_site_fract_z
 _atom_site_fract_occupancy
 C  C1  1  0.04262  0.93881  0.25000  1
 C  C2  1  0.95738  0.06119  0.75000  1
 C  C3  1  0.45738  0.43881  0.75000  1
 C  C4  1  0.54262  0.56119  0.25000  1
 H  H1  1  0.20062  0.96917  0.25000  1
 H  H2  1  0.79938  0.03083  0.75000  1
 H  H3  1  0.29938  0.46917  0.75000  1
 H  H4  1  0.70062  0.53083  0.25000  1
 H  H5  1  0.01978  0.71284  0.25000  1
 H  H6  1  0.98022  0.28716  0.75000  1
 H  H7  1  0.48022  0.21284  0.75000  1
 H  H8  1  0.51978  0.78716  0.25000  1
