CIF file written using JARVIS-Tools package.
data_Si3Sb2O9
_symmetry_space_group_name_H-M  'P6_3/m'
_cell_length_a       6.92038
_cell_length_b       6.92038
_cell_length_c       9.32355
_cell_angle_alpha    90.0002
_cell_angle_beta     90.0001
_cell_angle_gamma    120

_symmetry_Int_Tables_number  176
_chemical_formula_structural  Si3Sb2O9
_chemical_formula_sum  Si6Sb4O8
_cell_volume  386.6975298024779
_cell_formula_units_Z  2
loop_
  _symmetry_equiv_pos_site_id
 _symmetry_equiv_pos_as_xyz
 1  'x, y, z'
loop_
 _atom_site_type_symbol
 _atom_site_label
 _atom_site_symmetry_multiplicity
 _atom_site_fract_x
 _atom_site_fract_y
 _atom_site_fract_z
 _atom_site_fract_occupancy
 O  O1  1  0.90420  0.57843  0.60483  1
 O  O2  1  0.18305  0.93557  0.75000  1
 O  O3  1  0.32577  0.90420  0.10483  1
 O  O4  1  0.32577  0.90420  0.39517  1
 O  O5  1  0.67424  0.09580  0.89517  1
 O  O6  1  0.09581  0.42157  0.39517  1
 O  O7  1  0.06444  0.24748  0.75000  1
 O  O8  1  0.24748  0.18304  0.25000  1
 O  O9  1  0.09581  0.42157  0.10483  1
 O  O10  1  0.57844  0.67424  0.39517  1
 O  O11  1  0.42157  0.32577  0.89517  1
 O  O12  1  0.75253  0.81696  0.75000  1
 O  O13  1  0.93557  0.75252  0.25000  1
 O  O14  1  0.81696  0.06443  0.25000  1
 O  O15  1  0.90420  0.57843  0.89517  1
 O  O16  1  0.67424  0.09580  0.60483  1
 O  O17  1  0.42157  0.32576  0.60483  1
 O  O18  1  0.57844  0.67423  0.10483  1
 Sb  Sb1  1  0.33334  0.66667  0.51846  1
 Sb  Sb2  1  0.33334  0.66667  0.98154  1
 Sb  Sb3  1  0.66667  0.33333  0.48154  1
 Sb  Sb4  1  0.66667  0.33333  0.01846  1
 Si  Si1  1  0.79313  0.07397  0.75000  1
 Si  Si2  1  0.92603  0.71915  0.75000  1
 Si  Si3  1  0.71916  0.79313  0.25000  1
 Si  Si4  1  0.28085  0.20687  0.75000  1
 Si  Si5  1  0.07398  0.28085  0.25000  1
 Si  Si6  1  0.20688  0.92603  0.25000  1
