CIF file written using JARVIS-Tools package.
data_CuP2H4O4
_symmetry_space_group_name_H-M  'Pbca'
_cell_length_a       5.3735
_cell_length_b       6.26168
_cell_length_c       13.951
_cell_angle_alpha    90
_cell_angle_beta     90
_cell_angle_gamma    90

_symmetry_Int_Tables_number  61
_chemical_formula_structural  CuP2H4O4
_chemical_formula_sum  Cu4P8H6O6
_cell_volume  469.4099787693397
_cell_formula_units_Z  4
loop_
  _symmetry_equiv_pos_site_id
 _symmetry_equiv_pos_as_xyz
 1  'x, y, z'
loop_
 _atom_site_type_symbol
 _atom_site_label
 _atom_site_symmetry_multiplicity
 _atom_site_fract_x
 _atom_site_fract_y
 _atom_site_fract_z
 _atom_site_fract_occupancy
 Cu  Cu1  1  0.00000  0.00000  0.00000  1
 Cu  Cu2  1  0.00000  0.50000  0.50000  1
 Cu  Cu3  1  0.50000  0.00000  0.50000  1
 Cu  Cu4  1  0.50000  0.50000  0.00000  1
 H  H1  1  0.98138  0.28193  0.78084  1
 H  H2  1  0.01862  0.71807  0.21916  1
 H  H3  1  0.48138  0.28193  0.71916  1
 H  H4  1  0.98138  0.21807  0.28084  1
 H  H5  1  0.57980  0.90928  0.14710  1
 H  H6  1  0.07980  0.59072  0.85290  1
 H  H7  1  0.92020  0.09072  0.64710  1
 H  H8  1  0.42020  0.09072  0.85290  1
 H  H9  1  0.92020  0.40928  0.14710  1
 H  H10  1  0.57980  0.59072  0.64710  1
 H  H11  1  0.07980  0.90928  0.35290  1
 H  H12  1  0.51862  0.78193  0.78084  1
 H  H13  1  0.42020  0.40928  0.35290  1
 H  H14  1  0.51862  0.71807  0.28084  1
 H  H15  1  0.01862  0.78193  0.71916  1
 H  H16  1  0.48138  0.21807  0.21916  1
 O  O1  1  0.82626  0.93596  0.87927  1
 O  O2  1  0.32626  0.56404  0.12073  1
 O  O3  1  0.17374  0.43596  0.62073  1
 O  O4  1  0.67374  0.06404  0.37927  1
 O  O5  1  0.59500  0.21572  0.05056  1
 O  O6  1  0.09500  0.21572  0.44944  1
 O  O7  1  0.40500  0.71572  0.44944  1
 O  O8  1  0.90500  0.78428  0.55056  1
 O  O9  1  0.40500  0.78428  0.94944  1
 O  O10  1  0.90500  0.71572  0.05056  1
 O  O11  1  0.59500  0.28428  0.55056  1
 O  O12  1  0.82626  0.56404  0.37927  1
 O  O13  1  0.32626  0.93596  0.62073  1
 O  O14  1  0.17374  0.06404  0.12073  1
 O  O15  1  0.67374  0.43596  0.87927  1
 O  O16  1  0.09500  0.28428  0.94944  1
 P  P1  1  0.45351  0.10428  0.13216  1
 P  P2  1  0.95351  0.39572  0.86784  1
 P  P3  1  0.54649  0.60428  0.36784  1
 P  P4  1  0.04649  0.89572  0.63216  1
 P  P5  1  0.54649  0.89572  0.86784  1
 P  P6  1  0.04649  0.60428  0.13216  1
 P  P7  1  0.45351  0.39572  0.63216  1
 P  P8  1  0.95351  0.10428  0.36784  1
