CIF file written using JARVIS-Tools package.
data_Mn6OF11
_symmetry_space_group_name_H-M  'P1'
_cell_length_a       4.84197
_cell_length_b       5.85084
_cell_length_c       8.15979
_cell_angle_alpha    87.9755
_cell_angle_beta     89.1718
_cell_angle_gamma    89.1319

_symmetry_Int_Tables_number  1
_chemical_formula_structural  Mn6OF11
_chemical_formula_sum  Mn6OF
_cell_volume  230.97023377267135
_cell_formula_units_Z  1
loop_
  _symmetry_equiv_pos_site_id
 _symmetry_equiv_pos_as_xyz
 1  'x, y, z'
loop_
 _atom_site_type_symbol
 _atom_site_label
 _atom_site_symmetry_multiplicity
 _atom_site_fract_x
 _atom_site_fract_y
 _atom_site_fract_z
 _atom_site_fract_occupancy
 F  F1  1  0.29932  0.20888  0.10549  1
 F  F2  1  0.80612  0.63504  0.56121  1
 F  F3  1  0.19794  0.03502  0.76627  1
 F  F4  1  0.70095  0.79153  0.90016  1
 F  F5  1  0.69119  0.46627  0.23192  1
 F  F6  1  0.80996  0.96195  0.23404  1
 F  F7  1  0.31041  0.86204  0.43130  1
 F  F8  1  0.30249  0.53566  0.76594  1
 F  F9  1  0.20960  0.70550  0.08912  1
 F  F10  1  0.18626  0.36011  0.44919  1
 F  F11  1  0.69872  0.13298  0.56530  1
 Mn  Mn1  1  0.98219  0.02080  0.99654  1
 Mn  Mn2  1  0.97893  0.33829  0.68385  1
 Mn  Mn3  1  0.01359  0.65794  0.32594  1
 Mn  Mn4  1  0.50244  0.83413  0.66731  1
 Mn  Mn5  1  0.49763  0.16652  0.33631  1
 Mn  Mn6  1  0.51561  0.48773  0.99243  1
 O  O1  1  0.79663  0.29960  0.89769  1
