CIF file written using JARVIS-Tools package.
data_Li4MnF8
_symmetry_space_group_name_H-M  'P2'
_cell_length_a       4.96723
_cell_length_b       5.97162
_cell_length_c       5.11053
_cell_angle_alpha    90
_cell_angle_beta     110.758
_cell_angle_gamma    90

_symmetry_Int_Tables_number  3
_chemical_formula_structural  Li4MnF8
_chemical_formula_sum  Li4MnF8
_cell_volume  141.75022819364256
_cell_formula_units_Z  1
loop_
  _symmetry_equiv_pos_site_id
 _symmetry_equiv_pos_as_xyz
 1  'x, y, z'
loop_
 _atom_site_type_symbol
 _atom_site_label
 _atom_site_symmetry_multiplicity
 _atom_site_fract_x
 _atom_site_fract_y
 _atom_site_fract_z
 _atom_site_fract_occupancy
 F  F1  1  0.70805  0.50646  0.26749  1
 F  F2  1  0.70546  0.98178  0.25596  1
 F  F3  1  0.71722  0.27649  0.72439  1
 F  F4  1  0.73479  0.71850  0.71466  1
 F  F5  1  0.28278  0.27649  0.27561  1
 F  F6  1  0.26521  0.71850  0.28534  1
 F  F7  1  0.29454  0.98178  0.74404  1
 F  F8  1  0.29195  0.50646  0.73251  1
 Li  Li1  1  -0.00000  0.81793  0.50000  1
 Li  Li2  1  0.50000  0.01083  0.50000  1
 Li  Li3  1  0.50000  0.20853  -0.00000  1
 Li  Li4  1  0.50000  0.76499  -0.00000  1
 Mn  Mn1  1  0.50000  0.49529  0.50000  1
