CIF file written using JARVIS-Tools package.
data_Li2VF4
_symmetry_space_group_name_H-M  'I4/mmm'
_cell_length_a       4.10634
_cell_length_b       5.24324
_cell_length_c       5.80707
_cell_angle_alpha    90.0013
_cell_angle_beta     45.0042
_cell_angle_gamma    66.9444

_symmetry_Int_Tables_number  139
_chemical_formula_structural  Li2VF4
_chemical_formula_sum  Li2VF4
_cell_volume  73.61759442439684
_cell_formula_units_Z  1
loop_
  _symmetry_equiv_pos_site_id
 _symmetry_equiv_pos_as_xyz
 1  'x, y, z'
loop_
 _atom_site_type_symbol
 _atom_site_label
 _atom_site_symmetry_multiplicity
 _atom_site_fract_x
 _atom_site_fract_y
 _atom_site_fract_z
 _atom_site_fract_occupancy
 F  F1  1  0.47686  0.52491  0.76138  1
 F  F2  1  0.52667  0.47509  0.23648  1
 F  F3  1  0.50172  -0.00000  0.49894  1
 F  F4  1  0.50176  0.00000  0.99896  1
 Li  Li1  1  0.00184  0.50000  0.74891  1
 Li  Li2  1  0.00184  0.50000  0.24891  1
 V  V1  1  0.00177  -0.00000  0.99894  1
