CIF file written using JARVIS-Tools package.
data_LiVCO4
_symmetry_space_group_name_H-M  'P2_1/c'
_cell_length_a       3.10096
_cell_length_b       9.30576
_cell_length_c       9.19997
_cell_angle_alpha    90
_cell_angle_beta     91.0953
_cell_angle_gamma    90

_symmetry_Int_Tables_number  14
_chemical_formula_structural  LiVCO4
_chemical_formula_sum  Li4V4C4O6
_cell_volume  265.4328966999996
_cell_formula_units_Z  4
loop_
  _symmetry_equiv_pos_site_id
 _symmetry_equiv_pos_as_xyz
 1  'x, y, z'
loop_
 _atom_site_type_symbol
 _atom_site_label
 _atom_site_symmetry_multiplicity
 _atom_site_fract_x
 _atom_site_fract_y
 _atom_site_fract_z
 _atom_site_fract_occupancy
 C  C1  1  0.25090  0.12997  0.66478  1
 C  C2  1  0.74910  0.87003  0.33522  1
 C  C3  1  0.74910  0.62997  0.83522  1
 C  C4  1  0.25090  0.37003  0.16478  1
 Li  Li1  1  0.73776  0.18628  0.40244  1
 Li  Li2  1  0.26224  0.81372  0.59756  1
 Li  Li3  1  0.26224  0.68628  0.09756  1
 Li  Li4  1  0.73776  0.31372  0.90244  1
 O  O1  1  0.23968  0.25012  0.73841  1
 O  O2  1  0.73605  0.99317  0.25928  1
 O  O3  1  0.72801  0.38313  0.49636  1
 O  O4  1  0.75273  0.62638  0.97105  1
 O  O5  1  0.75273  0.87362  0.47105  1
 O  O6  1  0.76032  0.75012  0.76159  1
 O  O7  1  0.76032  0.74988  0.26159  1
 O  O8  1  0.72801  0.11687  -0.00364  1
 O  O9  1  0.24727  0.37362  0.02895  1
 O  O10  1  0.27199  0.61687  0.50364  1
 O  O11  1  0.23968  0.24988  0.23841  1
 O  O12  1  0.24727  0.12638  0.52895  1
 O  O13  1  0.73605  0.50683  0.75928  1
 O  O14  1  0.26395  0.00683  0.74072  1
 O  O15  1  0.26395  0.49317  0.24072  1
 O  O16  1  0.27199  0.88313  0.00364  1
 V  V1  1  0.22456  0.43771  0.61311  1
 V  V2  1  0.22456  0.06229  0.11311  1
 V  V3  1  0.77544  0.93771  0.88689  1
 V  V4  1  0.77544  0.56229  0.38689  1
