CIF file written using JARVIS-Tools package.
data_TbNa2PCO7
_symmetry_space_group_name_H-M  'P2_1/m'
_cell_length_a       5.03432
_cell_length_b       6.99052
_cell_length_c       9.41481
_cell_angle_alpha    90
_cell_angle_beta     90.8444
_cell_angle_gamma    90

_symmetry_Int_Tables_number  11
_chemical_formula_structural  TbNa2PCO7
_chemical_formula_sum  Tb2Na4P2C2O4
_cell_volume  331.29538680138313
_cell_formula_units_Z  2
loop_
  _symmetry_equiv_pos_site_id
 _symmetry_equiv_pos_as_xyz
 1  'x, y, z'
loop_
 _atom_site_type_symbol
 _atom_site_label
 _atom_site_symmetry_multiplicity
 _atom_site_fract_x
 _atom_site_fract_y
 _atom_site_fract_z
 _atom_site_fract_occupancy
 C  C1  1  0.73326  0.75000  0.08392  1
 C  C2  1  0.26674  0.25000  0.91608  1
 Na  Na1  1  0.23475  0.48808  0.20731  1
 Na  Na2  1  0.23475  0.01192  0.20731  1
 Na  Na3  1  0.76525  0.51192  0.79269  1
 Na  Na4  1  0.76525  0.98808  0.79269  1
 O  O1  1  0.18029  0.93142  0.65428  1
 O  O2  1  0.29727  0.25000  0.04907  1
 O  O3  1  0.03449  0.25000  0.85181  1
 O  O4  1  0.52985  0.75000  0.17126  1
 O  O5  1  0.81971  0.06858  0.34572  1
 O  O6  1  0.81971  0.43142  0.34572  1
 O  O7  1  0.96551  0.75000  0.14819  1
 O  O8  1  0.38929  0.25000  0.39162  1
 O  O9  1  0.70273  0.75000  0.95093  1
 O  O10  1  0.75026  0.25000  0.57572  1
 O  O11  1  0.18029  0.56858  0.65428  1
 O  O12  1  0.24974  0.75000  0.42428  1
 O  O13  1  0.47015  0.25000  0.82874  1
 O  O14  1  0.61071  0.75000  0.60838  1
 P  P1  1  0.30296  0.75000  0.58964  1
 P  P2  1  0.69704  0.25000  0.41036  1
 Tb  Tb1  1  0.22842  0.25000  0.62293  1
 Tb  Tb2  1  0.77158  0.75000  0.37707  1
