CIF file written using JARVIS-Tools package.
data_Dy2SeO2
_symmetry_space_group_name_H-M  'P-3m1'
_cell_length_a       3.83541
_cell_length_b       3.83542
_cell_length_c       6.80876
_cell_angle_alpha    89.9911
_cell_angle_beta     89.9982
_cell_angle_gamma    120.001

_symmetry_Int_Tables_number  164
_chemical_formula_structural  Dy2SeO2
_chemical_formula_sum  Dy2SeO2
_cell_volume  86.73995968859583
_cell_formula_units_Z  1
loop_
  _symmetry_equiv_pos_site_id
 _symmetry_equiv_pos_as_xyz
 1  'x, y, z'
loop_
 _atom_site_type_symbol
 _atom_site_label
 _atom_site_symmetry_multiplicity
 _atom_site_fract_x
 _atom_site_fract_y
 _atom_site_fract_z
 _atom_site_fract_occupancy
 Dy  Dy1  1  0.33063  0.66274  0.28919  1
 Dy  Dy2  1  0.66394  0.32936  0.70880  1
 O  O1  1  0.33063  0.66272  0.62488  1
 O  O2  1  0.66394  0.32937  0.37311  1
 Se  Se1  1  0.99729  0.99607  0.99899  1
