CIF file written using JARVIS-Tools package.
data_B2C3N6
_symmetry_space_group_name_H-M  'R32'
_cell_length_a       5.70853
_cell_length_b       5.70853
_cell_length_c       5.70853
_cell_angle_alpha    94.1204
_cell_angle_beta     94.1204
_cell_angle_gamma    94.1204

_symmetry_Int_Tables_number  155
_chemical_formula_structural  B2C3N6
_chemical_formula_sum  B2C3N6
_cell_volume  184.50959976354977
_cell_formula_units_Z  1
loop_
  _symmetry_equiv_pos_site_id
 _symmetry_equiv_pos_as_xyz
 1  'x, y, z'
loop_
 _atom_site_type_symbol
 _atom_site_label
 _atom_site_symmetry_multiplicity
 _atom_site_fract_x
 _atom_site_fract_y
 _atom_site_fract_z
 _atom_site_fract_occupancy
 B  B1  1  0.31443  0.31443  0.31443  1
 B  B2  1  0.68557  0.68557  0.68557  1
 C  C1  1  -0.00000  0.58032  0.41968  1
 C  C2  1  0.41968  0.00000  0.58032  1
 C  C3  1  0.58032  0.41968  -0.00000  1
 N  N1  1  0.14854  0.49089  0.30831  1
 N  N2  1  0.49089  0.30831  0.14854  1
 N  N3  1  0.85146  0.69169  0.50911  1
 N  N4  1  0.50911  0.85146  0.69169  1
 N  N5  1  0.69169  0.50911  0.85146  1
 N  N6  1  0.30831  0.14854  0.49089  1
