CIF file written using JARVIS-Tools package.
data_Dy2SeO2
_symmetry_space_group_name_H-M  'I4/mmm'
_cell_length_a       6.6051
_cell_length_b       6.6051
_cell_length_c       6.6051
_cell_angle_alpha    146.399
_cell_angle_beta     146.399
_cell_angle_gamma    48.2543

_symmetry_Int_Tables_number  139
_chemical_formula_structural  Dy2SeO2
_chemical_formula_sum  Dy2SeO2
_cell_volume  87.88411018372288
_cell_formula_units_Z  1
loop_
  _symmetry_equiv_pos_site_id
 _symmetry_equiv_pos_as_xyz
 1  'x, y, z'
loop_
 _atom_site_type_symbol
 _atom_site_label
 _atom_site_symmetry_multiplicity
 _atom_site_fract_x
 _atom_site_fract_y
 _atom_site_fract_z
 _atom_site_fract_occupancy
 Dy  Dy1  1  0.34460  0.34460  -0.00000  1
 Dy  Dy2  1  0.65540  0.65540  0.00000  1
 O  O1  1  0.75000  0.25000  0.50000  1
 O  O2  1  0.25000  0.75000  0.50000  1
 Se  Se1  1  0.00000  0.00000  0.00000  1
