CIF file written using JARVIS-Tools package.
data_Li3CrPCO7
_symmetry_space_group_name_H-M  'P2_1'
_cell_length_a       4.94608
_cell_length_b       6.43587
_cell_length_c       8.58076
_cell_angle_alpha    90
_cell_angle_beta     97.853
_cell_angle_gamma    90

_symmetry_Int_Tables_number  4
_chemical_formula_structural  Li3CrPCO7
_chemical_formula_sum  Li6Cr2P2C2O4
_cell_volume  270.5839183507034
_cell_formula_units_Z  2
loop_
  _symmetry_equiv_pos_site_id
 _symmetry_equiv_pos_as_xyz
 1  'x, y, z'
loop_
 _atom_site_type_symbol
 _atom_site_label
 _atom_site_symmetry_multiplicity
 _atom_site_fract_x
 _atom_site_fract_y
 _atom_site_fract_z
 _atom_site_fract_occupancy
 C  C1  1  0.66466  0.72482  0.94789  1
 C  C2  1  0.33534  0.22482  0.05211  1
 Cr  Cr1  1  0.26239  0.98722  0.73860  1
 Cr  Cr2  1  0.73761  0.48722  0.26140  1
 Li  Li1  1  0.83118  0.10922  0.92909  1
 Li  Li2  1  0.26267  0.53097  0.68940  1
 Li  Li3  1  0.77668  0.76799  0.61987  1
 Li  Li4  1  0.22332  0.26799  0.38013  1
 Li  Li5  1  0.73733  0.03097  0.31060  1
 Li  Li6  1  0.16882  0.60922  0.07091  1
 O  O1  1  0.88128  0.48702  0.69689  1
 O  O2  1  0.86662  0.09413  0.69964  1
 O  O3  1  0.56613  0.62473  0.05957  1
 O  O4  1  0.43387  0.12473  0.94043  1
 O  O5  1  0.90379  0.80281  0.96847  1
 O  O6  1  0.50645  0.74284  0.81327  1
 O  O7  1  0.43794  0.29428  0.59614  1
 O  O8  1  0.49355  0.24284  0.18673  1
 O  O9  1  0.83829  0.28731  0.44097  1
 O  O10  1  0.11872  0.98702  0.30311  1
 O  O11  1  0.13338  0.59413  0.30036  1
 O  O12  1  0.16171  0.78731  0.55903  1
 O  O13  1  0.56206  0.79428  0.40386  1
 O  O14  1  0.09621  0.30281  0.03153  1
 P  P1  1  0.75491  0.29666  0.61071  1
 P  P2  1  0.24509  0.79666  0.38929  1
