CIF file written using JARVIS-Tools package.
data_Li3Ni4O4F3
_symmetry_space_group_name_H-M  'I4/mmm'
_cell_length_a       2.88743
_cell_length_b       2.88743
_cell_length_c       15.0148
_cell_angle_alpha    95.5177
_cell_angle_beta     95.5177
_cell_angle_gamma    90

_symmetry_Int_Tables_number  139
_chemical_formula_structural  Li3Ni4O4F3
_chemical_formula_sum  Li3Ni4O4F3
_cell_volume  124.01960893032373
_cell_formula_units_Z  1
loop_
  _symmetry_equiv_pos_site_id
 _symmetry_equiv_pos_as_xyz
 1  'x, y, z'
loop_
 _atom_site_type_symbol
 _atom_site_label
 _atom_site_symmetry_multiplicity
 _atom_site_fract_x
 _atom_site_fract_y
 _atom_site_fract_z
 _atom_site_fract_occupancy
 F  F1  1  0.99470  0.99470  0.98939  1
 F  F2  1  0.86245  0.86245  0.72489  1
 F  F3  1  0.42857  0.42857  0.85714  1
 Li  Li1  1  0.49647  0.49647  0.99294  1
 Li  Li2  1  0.36067  0.36067  0.72135  1
 Li  Li3  1  0.92857  0.92857  0.85714  1
 Ni  Ni1  1  0.07010  0.07010  0.14019  1
 Ni  Ni2  1  0.64152  0.64152  0.28305  1
 Ni  Ni3  1  0.21562  0.21562  0.43124  1
 Ni  Ni4  1  0.78705  0.78705  0.57410  1
 O  O1  1  0.56919  0.56919  0.13838  1
 O  O2  1  0.14168  0.14168  0.28336  1
 O  O3  1  0.71546  0.71546  0.43093  1
 O  O4  1  0.28795  0.28795  0.57591  1
