CIF file written using JARVIS-Tools package.
data_Li2VCrP4O14
_symmetry_space_group_name_H-M  'P1'
_cell_length_a       4.8269
_cell_length_b       6.99445
_cell_length_c       8.07038
_cell_angle_alpha    89.8761
_cell_angle_beta     89.6994
_cell_angle_gamma    70.6605

_symmetry_Int_Tables_number  1
_chemical_formula_structural  Li2VCrP4O14
_chemical_formula_sum  Li2VCrP4O4
_cell_volume  257.090153172375
_cell_formula_units_Z  1
loop_
  _symmetry_equiv_pos_site_id
 _symmetry_equiv_pos_as_xyz
 1  'x, y, z'
loop_
 _atom_site_type_symbol
 _atom_site_label
 _atom_site_symmetry_multiplicity
 _atom_site_fract_x
 _atom_site_fract_y
 _atom_site_fract_z
 _atom_site_fract_occupancy
 Cr  Cr1  1  0.21590  0.27217  -0.00004  1
 Li  Li1  1  0.82122  0.67186  0.86249  1
 Li  Li2  1  0.17242  0.32754  0.36231  1
 O  O1  1  0.94061  0.85630  0.32185  1
 O  O2  1  0.87253  0.87933  0.69976  1
 O  O3  1  0.12578  0.12155  0.19164  1
 O  O4  1  0.74853  0.50884  0.34497  1
 O  O5  1  0.60043  0.60739  0.68027  1
 O  O6  1  0.81015  0.47651  0.03199  1
 O  O7  1  0.40209  0.75586  0.14733  1
 O  O8  1  0.60789  0.24476  0.65171  1
 O  O9  1  0.38741  0.39718  0.18038  1
 O  O10  1  0.39083  0.91990  0.43494  1
 O  O11  1  0.24742  0.48755  0.84758  1
 O  O12  1  0.18687  0.51710  0.53572  1
 O  O13  1  0.61032  0.09028  0.94222  1
 O  O14  1  0.07320  0.13735  0.82401  1
 P  P1  1  0.40311  0.47543  0.67985  1
 P  P2  1  0.20692  0.91822  0.28094  1
 P  P3  1  0.79968  0.08294  0.78791  1
 P  P4  1  0.59507  0.52118  0.17791  1
 V  V1  1  0.78164  0.73074  0.49986  1
