CIF file written using JARVIS-Tools package.
data_Li4MnF7
_symmetry_space_group_name_H-M  'C2/c'
_cell_length_a       7.5253
_cell_length_b       7.5253
_cell_length_c       5.34367
_cell_angle_alpha    78.5055
_cell_angle_beta     101.495
_cell_angle_gamma    109.138

_symmetry_Int_Tables_number  15
_chemical_formula_structural  Li4MnF7
_chemical_formula_sum  Li8Mn2F4
_cell_volume  277.2074111325479
_cell_formula_units_Z  2
loop_
  _symmetry_equiv_pos_site_id
 _symmetry_equiv_pos_as_xyz
 1  'x, y, z'
loop_
 _atom_site_type_symbol
 _atom_site_label
 _atom_site_symmetry_multiplicity
 _atom_site_fract_x
 _atom_site_fract_y
 _atom_site_fract_z
 _atom_site_fract_occupancy
 F  F1  1  0.78766  0.39581  0.56676  1
 F  F2  1  0.01514  0.81565  0.65355  1
 F  F3  1  0.81565  0.01514  0.84645  1
 F  F4  1  0.39581  0.78766  0.93324  1
 F  F5  1  0.21234  0.60419  0.43324  1
 F  F6  1  0.15700  0.33323  0.91575  1
 F  F7  1  0.18435  0.98486  0.15355  1
 F  F8  1  0.54914  0.54914  0.75000  1
 F  F9  1  0.45086  0.45086  0.25000  1
 F  F10  1  0.33323  0.15700  0.58425  1
 F  F11  1  0.84300  0.66677  0.08425  1
 F  F12  1  0.98486  0.18435  0.34645  1
 F  F13  1  0.60419  0.21234  0.06676  1
 F  F14  1  0.66677  0.84300  0.41575  1
 Li  Li1  1  0.74986  0.05572  0.15098  1
 Li  Li2  1  0.94428  0.25014  0.65098  1
 Li  Li3  1  0.68946  0.42082  0.22884  1
 Li  Li4  1  0.57918  0.31054  0.72884  1
 Li  Li5  1  0.42082  0.68946  0.27116  1
 Li  Li6  1  0.31054  0.57918  0.77116  1
 Li  Li7  1  0.05572  0.74986  0.34902  1
 Li  Li8  1  0.25014  0.94428  0.84902  1
 Mn  Mn1  1  0.23508  0.23508  0.25000  1
 Mn  Mn2  1  0.76492  0.76492  0.75000  1
