CIF file written using JARVIS-Tools package.
data_Sr3SiO5
_symmetry_space_group_name_H-M  'I4/mcm'
_cell_length_a       6.89209
_cell_length_b       6.89209
_cell_length_c       7.30704
_cell_angle_alpha    118.139
_cell_angle_beta     118.139
_cell_angle_gamma    90

_symmetry_Int_Tables_number  140
_chemical_formula_structural  Sr3SiO5
_chemical_formula_sum  Sr6Si2O0
_cell_volume  258.6181346513906
_cell_formula_units_Z  2
loop_
  _symmetry_equiv_pos_site_id
 _symmetry_equiv_pos_as_xyz
 1  'x, y, z'
loop_
 _atom_site_type_symbol
 _atom_site_label
 _atom_site_symmetry_multiplicity
 _atom_site_fract_x
 _atom_site_fract_y
 _atom_site_fract_z
 _atom_site_fract_occupancy
 O  O1  1  0.72631  0.45856  0.18486  1
 O  O2  1  0.54144  0.54144  0.81514  1
 O  O3  1  0.25000  0.75000  0.50000  1
 O  O4  1  0.77369  0.04144  0.81514  1
 O  O5  1  0.75000  0.25000  0.50000  1
 O  O6  1  0.95856  0.95856  0.18486  1
 O  O7  1  0.22631  0.22631  0.18486  1
 O  O8  1  0.45856  0.72631  0.18486  1
 O  O9  1  0.27369  0.27369  0.81514  1
 O  O10  1  0.04144  0.77369  0.81514  1
 Si  Si1  1  0.50000  0.50000  1.00000  1
 Si  Si2  1  1.00000  1.00000  1.00000  1
 Sr  Sr1  1  0.43132  0.06868  0.50000  1
 Sr  Sr2  1  0.06868  0.43132  0.50000  1
 Sr  Sr3  1  0.93132  0.93132  0.50000  1
 Sr  Sr4  1  0.56868  0.56868  0.50000  1
 Sr  Sr5  1  0.50000  0.00000  0.00000  1
 Sr  Sr6  1  0.00000  0.50000  0.00000  1
