CIF file written using JARVIS-Tools package.
data_SnBrCl
_symmetry_space_group_name_H-M  'P4/nmm'
_cell_length_a       6.00355
_cell_length_b       6.00355
_cell_length_c       5.63587
_cell_angle_alpha    90
_cell_angle_beta     90
_cell_angle_gamma    90

_symmetry_Int_Tables_number  129
_chemical_formula_structural  SnBrCl
_chemical_formula_sum  Sn2Br2Cl2
_cell_volume  203.13127385766674
_cell_formula_units_Z  2
loop_
  _symmetry_equiv_pos_site_id
 _symmetry_equiv_pos_as_xyz
 1  'x, y, z'
loop_
 _atom_site_type_symbol
 _atom_site_label
 _atom_site_symmetry_multiplicity
 _atom_site_fract_x
 _atom_site_fract_y
 _atom_site_fract_z
 _atom_site_fract_occupancy
 Br  Br1  1  0.25000  0.75000  0.00000  1
 Br  Br2  1  0.75000  0.25000  0.00000  1
 Cl  Cl1  1  0.25000  0.25000  0.56179  1
 Cl  Cl2  1  0.75000  0.75000  0.43821  1
 Sn  Sn1  1  0.75000  0.75000  0.88162  1
 Sn  Sn2  1  0.25000  0.25000  0.11838  1
