CIF file written using JARVIS-Tools package.
data_VOF
_symmetry_space_group_name_H-M  'P2_1/c'
_cell_length_a       5.10018
_cell_length_b       4.58063
_cell_length_c       5.63172
_cell_angle_alpha    90
_cell_angle_beta     90.0053
_cell_angle_gamma    90

_symmetry_Int_Tables_number  14
_chemical_formula_structural  VOF
_chemical_formula_sum  V4O4F4
_cell_volume  131.5684159576464
_cell_formula_units_Z  4
loop_
  _symmetry_equiv_pos_site_id
 _symmetry_equiv_pos_as_xyz
 1  'x, y, z'
loop_
 _atom_site_type_symbol
 _atom_site_label
 _atom_site_symmetry_multiplicity
 _atom_site_fract_x
 _atom_site_fract_y
 _atom_site_fract_z
 _atom_site_fract_occupancy
 F  F1  1  0.41839  0.76073  0.11749  1
 F  F2  1  0.41839  0.73927  0.61749  1
 F  F3  1  0.58161  0.26073  0.38251  1
 F  F4  1  0.58161  0.23927  0.88251  1
 O  O1  1  0.08459  0.22732  0.12361  1
 O  O2  1  0.08459  0.27268  0.62361  1
 O  O3  1  0.91541  0.72732  0.37639  1
 O  O4  1  0.91541  0.77268  0.87639  1
 V  V1  1  0.22109  0.48217  0.35498  1
 V  V2  1  0.22109  0.01783  0.85498  1
 V  V3  1  0.77891  0.98217  0.14502  1
 V  V4  1  0.77891  0.51783  0.64502  1
