CIF file written using JARVIS-Tools package.
data_CuI
_symmetry_space_group_name_H-M  'P3m1'
_cell_length_a       4.16158
_cell_length_b       4.16158
_cell_length_c       21.7064
_cell_angle_alpha    90
_cell_angle_beta     90
_cell_angle_gamma    120

_symmetry_Int_Tables_number  156
_chemical_formula_structural  CuI
_chemical_formula_sum  Cu6I6
_cell_volume  325.56265657963377
_cell_formula_units_Z  6
loop_
  _symmetry_equiv_pos_site_id
 _symmetry_equiv_pos_as_xyz
 1  'x, y, z'
loop_
 _atom_site_type_symbol
 _atom_site_label
 _atom_site_symmetry_multiplicity
 _atom_site_fract_x
 _atom_site_fract_y
 _atom_site_fract_z
 _atom_site_fract_occupancy
 Cu  Cu1  1  0.00000  0.00000  0.78190  1
 Cu  Cu2  1  0.33333  0.66667  0.05088  1
 Cu  Cu3  1  0.00000  0.00000  0.44886  1
 Cu  Cu4  1  0.00000  0.00000  0.11474  1
 Cu  Cu5  1  0.66667  0.33333  0.71808  1
 Cu  Cu6  1  0.33333  0.66667  0.38528  1
 I  I1  1  0.00000  0.00000  0.32811  1
 I  I2  1  0.00000  0.00000  0.66118  1
 I  I3  1  0.33333  0.66667  0.17183  1
 I  I4  1  0.33333  0.66667  0.50608  1
 I  I5  1  0.66667  0.33333  0.83901  1
 I  I6  1  0.00000  0.00000  0.99402  1
