CIF file written using JARVIS-Tools package.
data_Na3ZnPCO7
_symmetry_space_group_name_H-M  'P2_1/m'
_cell_length_a       5.13929
_cell_length_b       6.58584
_cell_length_c       8.99408
_cell_angle_alpha    90
_cell_angle_beta     89.8761
_cell_angle_gamma    90

_symmetry_Int_Tables_number  11
_chemical_formula_structural  Na3ZnPCO7
_chemical_formula_sum  Na6Zn2P2C2O4
_cell_volume  304.41762147440807
_cell_formula_units_Z  2
loop_
  _symmetry_equiv_pos_site_id
 _symmetry_equiv_pos_as_xyz
 1  'x, y, z'
loop_
 _atom_site_type_symbol
 _atom_site_label
 _atom_site_symmetry_multiplicity
 _atom_site_fract_x
 _atom_site_fract_y
 _atom_site_fract_z
 _atom_site_fract_occupancy
 C  C1  1  0.25976  0.25000  0.06410  1
 C  C2  1  0.74024  0.75000  0.93590  1
 Na  Na1  1  0.24164  0.75000  0.08521  1
 Na  Na2  1  0.75274  0.00072  0.25780  1
 Na  Na3  1  0.75274  0.49928  0.25780  1
 Na  Na4  1  0.24726  0.50072  0.74220  1
 Na  Na5  1  0.24726  -0.00072  0.74220  1
 Na  Na6  1  0.75836  0.25000  0.91479  1
 O  O1  1  0.97316  0.75000  0.88095  1
 O  O2  1  0.02684  0.25000  0.11905  1
 O  O3  1  0.45868  0.25000  0.15363  1
 O  O4  1  0.21357  0.93759  0.31985  1
 O  O5  1  0.21357  0.56241  0.31985  1
 O  O6  1  0.70421  0.75000  0.07881  1
 O  O7  1  0.83872  0.25000  0.43065  1
 O  O8  1  0.16128  0.75000  0.56935  1
 O  O9  1  0.54132  0.75000  0.84637  1
 O  O10  1  0.78643  0.43759  0.68015  1
 O  O11  1  0.78643  0.06241  0.68015  1
 O  O12  1  0.59358  0.75000  0.43650  1
 O  O13  1  0.40642  0.25000  0.56350  1
 O  O14  1  0.29579  0.25000  0.92119  1
 P  P1  1  0.29157  0.75000  0.41461  1
 P  P2  1  0.70843  0.25000  0.58539  1
 Zn  Zn1  1  0.77646  0.75000  0.63501  1
 Zn  Zn2  1  0.22354  0.25000  0.36499  1
