CIF file written using JARVIS-Tools package.
data_Li2VC2O6
_symmetry_space_group_name_H-M  'P2_1/c'
_cell_length_a       4.86756
_cell_length_b       5.67969
_cell_length_c       8.09839
_cell_angle_alpha    90
_cell_angle_beta     92.1577
_cell_angle_gamma    90

_symmetry_Int_Tables_number  14
_chemical_formula_structural  Li2VC2O6
_chemical_formula_sum  Li4V2C4O2
_cell_volume  223.7310575114634
_cell_formula_units_Z  2
loop_
  _symmetry_equiv_pos_site_id
 _symmetry_equiv_pos_as_xyz
 1  'x, y, z'
loop_
 _atom_site_type_symbol
 _atom_site_label
 _atom_site_symmetry_multiplicity
 _atom_site_fract_x
 _atom_site_fract_y
 _atom_site_fract_z
 _atom_site_fract_occupancy
 C  C1  1  0.25407  0.20947  0.88384  1
 C  C2  1  0.74593  0.70947  0.11616  1
 C  C3  1  0.75407  0.29053  0.38384  1
 C  C4  1  0.24593  0.79053  0.61616  1
 Li  Li1  1  0.23196  0.26395  0.54751  1
 Li  Li2  1  0.76804  0.76395  0.45249  1
 Li  Li3  1  0.73196  0.23605  0.04751  1
 Li  Li4  1  0.26804  0.73605  0.95249  1
 O  O1  1  0.10036  0.72600  0.73885  1
 O  O2  1  0.39964  0.27401  0.76116  1
 O  O3  1  0.49448  0.24847  0.38301  1
 O  O4  1  0.50552  0.74847  0.61699  1
 O  O5  1  0.37407  0.09731  0.00830  1
 O  O6  1  0.62593  0.59731  0.99170  1
 O  O7  1  0.00552  0.75154  0.11699  1
 O  O8  1  0.89964  0.22600  0.26115  1
 O  O9  1  -0.00552  0.25154  0.88301  1
 O  O10  1  0.60036  0.77401  0.23884  1
 O  O11  1  0.87407  0.40269  0.50831  1
 O  O12  1  0.12593  0.90269  0.49169  1
 V  V1  1  0.75000  0.50000  0.75000  1
 V  V2  1  0.25000  -0.00000  0.25000  1
