CIF file written using JARVIS-Tools package.
data_Li3V4O5F7
_symmetry_space_group_name_H-M  'P1'
_cell_length_a       5.72893
_cell_length_b       5.65659
_cell_length_c       6.09697
_cell_angle_alpha    100.065
_cell_angle_beta     98.3746
_cell_angle_gamma    97.3135

_symmetry_Int_Tables_number  1
_chemical_formula_structural  Li3V4O5F7
_chemical_formula_sum  Li3V4O5F7
_cell_volume  190.0837540818796
_cell_formula_units_Z  1
loop_
  _symmetry_equiv_pos_site_id
 _symmetry_equiv_pos_as_xyz
 1  'x, y, z'
loop_
 _atom_site_type_symbol
 _atom_site_label
 _atom_site_symmetry_multiplicity
 _atom_site_fract_x
 _atom_site_fract_y
 _atom_site_fract_z
 _atom_site_fract_occupancy
 F  F1  1  0.69637  0.85813  0.04229  1
 F  F2  1  0.38439  0.57552  0.15469  1
 F  F3  1  0.93096  0.29405  0.13637  1
 F  F4  1  0.45802  0.84089  0.60143  1
 F  F5  1  0.80973  0.61112  0.44363  1
 F  F6  1  0.58935  0.18151  0.41409  1
 F  F7  1  0.12980  0.95863  0.32489  1
 Li  Li1  1  0.59175  0.31720  0.14162  1
 Li  Li2  1  0.63551  0.84242  0.35588  1
 Li  Li3  1  0.11752  0.58912  0.31041  1
 O  O1  1  0.03443  0.66980  0.88385  1
 O  O2  1  0.96924  0.11891  0.72098  1
 O  O3  1  0.33492  0.05080  0.93871  1
 O  O4  1  0.18815  0.44095  0.58001  1
 O  O5  1  0.57213  0.41194  0.79702  1
 V  V1  1  0.02467  -0.00161  0.99689  1
 V  V2  1  0.37611  0.67969  0.85374  1
 V  V3  1  0.85420  0.40526  0.66648  1
 V  V4  1  0.30276  0.15567  0.63705  1
