CIF file written using JARVIS-Tools package.
data_ReH4NO4
_symmetry_space_group_name_H-M  'I4_1/a'
_cell_length_a       6.05417
_cell_length_b       6.05417
_cell_length_c       7.4935
_cell_angle_alpha    113.826
_cell_angle_beta     113.826
_cell_angle_gamma    90

_symmetry_Int_Tables_number  88
_chemical_formula_structural  ReH4NO4
_chemical_formula_sum  Re2H8N2O8
_cell_volume  225.42677113989234
_cell_formula_units_Z  2
loop_
  _symmetry_equiv_pos_site_id
 _symmetry_equiv_pos_as_xyz
 1  'x, y, z'
loop_
 _atom_site_type_symbol
 _atom_site_label
 _atom_site_symmetry_multiplicity
 _atom_site_fract_x
 _atom_site_fract_y
 _atom_site_fract_z
 _atom_site_fract_occupancy
 H  H1  1  0.83013  0.24860  0.40041  1
 H  H2  1  0.84819  0.16987  0.59959  1
 H  H3  1  0.40181  0.58013  0.90041  1
 H  H4  1  0.41987  0.50140  0.09959  1
 H  H5  1  0.57028  0.15181  0.40041  1
 H  H6  1  0.75140  0.42972  0.59959  1
 H  H7  1  0.67972  0.59819  0.09959  1
 H  H8  1  0.49860  0.32028  0.90041  1
 N  N1  1  0.50000  0.50000  -0.00000  1
 N  N2  1  0.75000  0.25000  0.50000  1
 O  O1  1  0.20513  0.62948  0.66311  1
 O  O2  1  0.96637  0.79487  0.33689  1
 O  O3  1  0.37052  0.54201  0.33689  1
 O  O4  1  0.79201  0.71637  0.83689  1
 O  O5  1  0.04487  0.12052  0.83689  1
 O  O6  1  0.45799  0.03363  0.66311  1
 O  O7  1  0.87948  0.20799  0.16311  1
 O  O8  1  0.28363  0.95513  0.16311  1
 Re  Re1  1  0.25000  0.75000  0.50000  1
 Re  Re2  1  0.00000  0.00000  0.00000  1
