CIF file written using JARVIS-Tools package.
data_MoN
_symmetry_space_group_name_H-M  'P6_3mc'
_cell_length_a       2.97179
_cell_length_b       2.97135
_cell_length_c       6.24143
_cell_angle_alpha    90
_cell_angle_beta     90
_cell_angle_gamma    120.005

_symmetry_Int_Tables_number  186
_chemical_formula_structural  MoN
_chemical_formula_sum  Mo2N2
_cell_volume  47.72710587080922
_cell_formula_units_Z  2
loop_
  _symmetry_equiv_pos_site_id
 _symmetry_equiv_pos_as_xyz
 1  'x, y, z'
loop_
 _atom_site_type_symbol
 _atom_site_label
 _atom_site_symmetry_multiplicity
 _atom_site_fract_x
 _atom_site_fract_y
 _atom_site_fract_z
 _atom_site_fract_occupancy
 Mo  Mo1  1  0.66668  0.33336  0.52843  1
 Mo  Mo2  1  0.33332  0.66664  0.02843  1
 N  N1  1  0.66673  0.33347  0.84637  1
 N  N2  1  0.33327  0.66653  0.34637  1
