CIF file written using JARVIS-Tools package.
data_Na2VBPO7
_symmetry_space_group_name_H-M  'P2_1/m'
_cell_length_a       5.38901
_cell_length_b       6.3723
_cell_length_c       9.07145
_cell_angle_alpha    90
_cell_angle_beta     92.2654
_cell_angle_gamma    90

_symmetry_Int_Tables_number  11
_chemical_formula_structural  Na2VBPO7
_chemical_formula_sum  Na4V2B2P2O4
_cell_volume  311.27339998754445
_cell_formula_units_Z  2
loop_
  _symmetry_equiv_pos_site_id
 _symmetry_equiv_pos_as_xyz
 1  'x, y, z'
loop_
 _atom_site_type_symbol
 _atom_site_label
 _atom_site_symmetry_multiplicity
 _atom_site_fract_x
 _atom_site_fract_y
 _atom_site_fract_z
 _atom_site_fract_occupancy
 B  B1  1  0.28473  0.25000  0.07646  1
 B  B2  1  0.71527  0.75000  0.92354  1
 Na  Na1  1  0.76677  -0.00122  0.22121  1
 Na  Na2  1  0.76677  0.50122  0.22121  1
 Na  Na3  1  0.23323  0.49878  0.77879  1
 Na  Na4  1  0.23323  0.00122  0.77879  1
 O  O1  1  0.67435  0.75000  0.06384  1
 O  O2  1  0.94640  0.75000  0.85161  1
 O  O3  1  0.46713  0.25000  0.19791  1
 O  O4  1  0.20249  0.94564  0.34489  1
 O  O5  1  0.20249  0.55436  0.34489  1
 O  O6  1  0.05360  0.25000  0.14839  1
 O  O7  1  0.56140  0.75000  0.47318  1
 O  O8  1  0.43860  0.25000  0.52682  1
 O  O9  1  0.79751  0.05436  0.65511  1
 O  O10  1  0.79751  0.44564  0.65511  1
 O  O11  1  0.86955  0.25000  0.41931  1
 O  O12  1  0.53287  0.75000  0.80209  1
 O  O13  1  0.13045  0.75000  0.58069  1
 O  O14  1  0.32565  0.25000  0.93616  1
 P  P1  1  0.72277  0.25000  0.56127  1
 P  P2  1  0.27723  0.75000  0.43873  1
 V  V1  1  0.78005  0.75000  0.66467  1
 V  V2  1  0.21995  0.25000  0.33533  1
