CIF file written using JARVIS-Tools package.
data_Cr5Si4O14
_symmetry_space_group_name_H-M  'P-1'
_cell_length_a       5.6265
_cell_length_b       7.3481
_cell_length_c       7.781
_cell_angle_alpha    112.008
_cell_angle_beta     90.5362
_cell_angle_gamma    106.313

_symmetry_Int_Tables_number  2
_chemical_formula_structural  Cr5Si4O14
_chemical_formula_sum  Cr5Si4O4
_cell_volume  283.86345730745086
_cell_formula_units_Z  1
loop_
  _symmetry_equiv_pos_site_id
 _symmetry_equiv_pos_as_xyz
 1  'x, y, z'
loop_
 _atom_site_type_symbol
 _atom_site_label
 _atom_site_symmetry_multiplicity
 _atom_site_fract_x
 _atom_site_fract_y
 _atom_site_fract_z
 _atom_site_fract_occupancy
 Cr  Cr1  1  0.00000  0.00000  0.00000  1
 Cr  Cr2  1  0.07705  0.39623  0.80759  1
 Cr  Cr3  1  0.65087  0.58837  0.69944  1
 Cr  Cr4  1  0.34913  0.41163  0.30056  1
 Cr  Cr5  1  0.92295  0.60377  0.19241  1
 O  O1  1  0.87617  0.20874  0.58503  1
 O  O2  1  0.79151  0.35422  0.95447  1
 O  O3  1  0.20849  0.64578  0.04553  1
 O  O4  1  0.41029  0.36258  0.75599  1
 O  O5  1  0.00201  0.21768  0.25413  1
 O  O6  1  0.54058  0.00775  0.27342  1
 O  O7  1  0.32217  0.22265  0.03044  1
 O  O8  1  0.67783  0.77735  0.96956  1
 O  O9  1  0.99799  0.78232  0.74587  1
 O  O10  1  0.67087  0.41129  0.43321  1
 O  O11  1  0.58971  0.63742  0.24401  1
 O  O12  1  0.45942  0.99225  0.72658  1
 O  O13  1  0.32913  0.58871  0.56679  1
 O  O14  1  0.12383  0.79126  0.41497  1
 Si  Si1  1  0.50039  0.76847  0.13673  1
 Si  Si2  1  0.22230  0.78861  0.60755  1
 Si  Si3  1  0.77770  0.21139  0.39245  1
 Si  Si4  1  0.49961  0.23153  0.86327  1
