CIF file written using JARVIS-Tools package.
data_CrW2O8
_symmetry_space_group_name_H-M  'P-1'
_cell_length_a       4.85221
_cell_length_b       6.4713
_cell_length_c       6.04971
_cell_angle_alpha    106.513
_cell_angle_beta     126.071
_cell_angle_gamma    91.1403

_symmetry_Int_Tables_number  2
_chemical_formula_structural  CrW2O8
_chemical_formula_sum  CrW2O8
_cell_volume  142.84886387432834
_cell_formula_units_Z  1
loop_
  _symmetry_equiv_pos_site_id
 _symmetry_equiv_pos_as_xyz
 1  'x, y, z'
loop_
 _atom_site_type_symbol
 _atom_site_label
 _atom_site_symmetry_multiplicity
 _atom_site_fract_x
 _atom_site_fract_y
 _atom_site_fract_z
 _atom_site_fract_occupancy
 Cr  Cr1  1  0.12470  0.22324  0.09969  1
 O  O1  1  0.22490  0.66801  0.84605  1
 O  O2  1  0.50759  0.47687  0.35923  1
 O  O3  1  0.21156  0.18971  0.81872  1
 O  O4  1  0.43896  0.07066  0.32141  1
 O  O5  1  0.74180  0.96961  0.84016  1
 O  O6  1  0.02449  0.77847  0.35334  1
 O  O7  1  0.03783  0.25677  0.38067  1
 O  O8  1  0.81044  0.37581  0.87798  1
 W  W1  1  0.92125  0.41752  0.63166  1
 W  W2  1  0.32815  0.02896  0.56773  1
