CIF file written using JARVIS-Tools package.
data_C
_symmetry_space_group_name_H-M  'P-3m1'
_cell_length_a       2.46458
_cell_length_b       2.46458
_cell_length_c       24.1019
_cell_angle_alpha    90.0253
_cell_angle_beta     89.9747
_cell_angle_gamma    120.001

_symmetry_Int_Tables_number  164
_chemical_formula_structural  C
_chemical_formula_sum  C4
_cell_volume  126.78391748561486
_cell_formula_units_Z  4
loop_
  _symmetry_equiv_pos_site_id
 _symmetry_equiv_pos_as_xyz
 1  'x, y, z'
loop_
 _atom_site_type_symbol
 _atom_site_label
 _atom_site_symmetry_multiplicity
 _atom_site_fract_x
 _atom_site_fract_y
 _atom_site_fract_z
 _atom_site_fract_occupancy
 C  C1  1  0.00034  0.99966  0.51567  1
 C  C2  1  0.99966  0.00034  0.65528  1
 C  C3  1  0.66633  0.33367  0.65530  1
 C  C4  1  0.33367  0.66633  0.51565  1
