CIF file written using JARVIS-Tools package.
data_TlInCl3
_symmetry_space_group_name_H-M  'P-1'
_cell_length_a       7.25522
_cell_length_b       7.96579
_cell_length_c       7.97005
_cell_angle_alpha    59.9326
_cell_angle_beta     56.6248
_cell_angle_gamma    56.5541

_symmetry_Int_Tables_number  2
_chemical_formula_structural  TlInCl3
_chemical_formula_sum  Tl2In2Cl6
_cell_volume  307.7528829195072
_cell_formula_units_Z  2
loop_
  _symmetry_equiv_pos_site_id
 _symmetry_equiv_pos_as_xyz
 1  'x, y, z'
loop_
 _atom_site_type_symbol
 _atom_site_label
 _atom_site_symmetry_multiplicity
 _atom_site_fract_x
 _atom_site_fract_y
 _atom_site_fract_z
 _atom_site_fract_occupancy
 Cl  Cl1  1  0.47871  0.06951  -0.11321  1
 Cl  Cl2  1  0.00731  0.42050  0.62317  1
 Cl  Cl3  1  0.48131  0.55086  0.07931  1
 Cl  Cl4  1  0.00471  0.93907  0.43071  1
 Cl  Cl5  1  0.48039  0.87596  0.56214  1
 Cl  Cl6  1  0.00557  0.61406  -0.05210  1
 In  In1  1  0.24298  0.24500  0.25501  1
 In  In2  1  0.74300  0.74498  0.75502  1
 Tl  Tl1  1  0.01421  -0.01185  -0.00184  1
 Tl  Tl2  1  0.47179  0.50192  0.51180  1
