CIF file written using JARVIS-Tools package.
data_MnInF3
_symmetry_space_group_name_H-M  'Cm'
_cell_length_a       4.2589
_cell_length_b       4.25899
_cell_length_c       4.25955
_cell_angle_alpha    89.9985
_cell_angle_beta     89.9772
_cell_angle_gamma    89.9942

_symmetry_Int_Tables_number  8
_chemical_formula_structural  MnInF3
_chemical_formula_sum  MnInF3
_cell_volume  77.2623218101249
_cell_formula_units_Z  1
loop_
  _symmetry_equiv_pos_site_id
 _symmetry_equiv_pos_as_xyz
 1  'x, y, z'
loop_
 _atom_site_type_symbol
 _atom_site_label
 _atom_site_symmetry_multiplicity
 _atom_site_fract_x
 _atom_site_fract_y
 _atom_site_fract_z
 _atom_site_fract_occupancy
 F  F1  1  0.48419  0.00001  0.50293  1
 F  F2  1  0.98797  0.50228  0.50284  1
 F  F3  1  0.48416  0.50233  0.99803  1
 In  In1  1  0.99440  0.99616  0.98984  1
 Mn  Mn1  1  0.48928  0.49922  0.49637  1
