CIF file written using JARVIS-Tools package.
data_Li4MnO3F
_symmetry_space_group_name_H-M  'Cmc2_1'
_cell_length_a       5.33798
_cell_length_b       5.33798
_cell_length_c       6.38615
_cell_angle_alpha    90
_cell_angle_beta     90
_cell_angle_gamma    98.9038

_symmetry_Int_Tables_number  36
_chemical_formula_structural  Li4MnO3F
_chemical_formula_sum  Li8Mn2O6F2
_cell_volume  179.77472086681004
_cell_formula_units_Z  2
loop_
  _symmetry_equiv_pos_site_id
 _symmetry_equiv_pos_as_xyz
 1  'x, y, z'
loop_
 _atom_site_type_symbol
 _atom_site_label
 _atom_site_symmetry_multiplicity
 _atom_site_fract_x
 _atom_site_fract_y
 _atom_site_fract_z
 _atom_site_fract_occupancy
 F  F1  1  0.79148  0.79148  0.47679  1
 F  F2  1  0.20852  0.20852  0.97679  1
 Li  Li1  1  0.84636  0.16814  0.49772  1
 Li  Li2  1  0.83186  0.15364  0.99772  1
 Li  Li3  1  0.42595  0.12061  0.74035  1
 Li  Li4  1  0.16814  0.84636  0.49772  1
 Li  Li5  1  0.12061  0.42595  0.74035  1
 Li  Li6  1  0.57405  0.87939  0.24035  1
 Li  Li7  1  0.15364  0.83186  0.99772  1
 Li  Li8  1  0.87939  0.57405  0.24035  1
 Mn  Mn1  1  0.36566  0.36566  0.27922  1
 Mn  Mn2  1  0.63434  0.63434  0.77922  1
 O  O1  1  0.33104  0.75901  0.75233  1
 O  O2  1  0.24099  0.66896  0.25233  1
 O  O3  1  0.78313  0.78313  0.01320  1
 O  O4  1  0.21687  0.21687  0.51320  1
 O  O5  1  0.66896  0.24099  0.25233  1
 O  O6  1  0.75901  0.33104  0.75233  1
