CIF file written using JARVIS-Tools package.
data_CrSiTe3
_symmetry_space_group_name_H-M  'R-3'
_cell_length_a       7.96081
_cell_length_b       7.96081
_cell_length_c       7.96081
_cell_angle_alpha    51.0333
_cell_angle_beta     51.0333
_cell_angle_gamma    51.0332

_symmetry_Int_Tables_number  148
_chemical_formula_structural  CrSiTe3
_chemical_formula_sum  Cr2Si2Te6
_cell_volume  281.342651738495
_cell_formula_units_Z  2
loop_
  _symmetry_equiv_pos_site_id
 _symmetry_equiv_pos_as_xyz
 1  'x, y, z'
loop_
 _atom_site_type_symbol
 _atom_site_label
 _atom_site_symmetry_multiplicity
 _atom_site_fract_x
 _atom_site_fract_y
 _atom_site_fract_z
 _atom_site_fract_occupancy
 Cr  Cr1  1  0.97469  0.97469  0.97469  1
 Cr  Cr2  1  0.30629  0.30629  0.30629  1
 Si  Si1  1  0.58502  0.58502  0.58502  1
 Si  Si2  1  0.69598  0.69598  0.69598  1
 Te  Te1  1  0.91919  0.55986  0.19286  1
 Te  Te2  1  0.19286  0.91919  0.55986  1
 Te  Te3  1  0.55986  0.19286  0.91919  1
 Te  Te4  1  0.72112  0.08814  0.36179  1
 Te  Te5  1  0.08814  0.36179  0.72112  1
 Te  Te6  1  0.36179  0.72112  0.08814  1
