CIF file written using JARVIS-Tools package.
data_MgCoO3
_symmetry_space_group_name_H-M  'Pnma'
_cell_length_a       5.12134
_cell_length_b       4.88381
_cell_length_c       7.15815
_cell_angle_alpha    90
_cell_angle_beta     89.9997
_cell_angle_gamma    90

_symmetry_Int_Tables_number  62
_chemical_formula_structural  MgCoO3
_chemical_formula_sum  Mg4Co4O2
_cell_volume  179.03706734174395
_cell_formula_units_Z  4
loop_
  _symmetry_equiv_pos_site_id
 _symmetry_equiv_pos_as_xyz
 1  'x, y, z'
loop_
 _atom_site_type_symbol
 _atom_site_label
 _atom_site_symmetry_multiplicity
 _atom_site_fract_x
 _atom_site_fract_y
 _atom_site_fract_z
 _atom_site_fract_occupancy
 Co  Co1  1  0.50000  0.00000  0.00000  1
 Co  Co2  1  0.50000  0.00000  0.50000  1
 Co  Co3  1  -0.00000  0.50000  0.50000  1
 Co  Co4  1  0.00000  0.50000  0.00000  1
 Mg  Mg1  1  0.92818  0.02000  0.25000  1
 Mg  Mg2  1  0.42818  0.48000  0.25000  1
 Mg  Mg3  1  0.57182  0.52000  0.75000  1
 Mg  Mg4  1  0.07182  0.98000  0.75000  1
 O  O1  1  0.44604  0.13020  0.75000  1
 O  O2  1  0.80803  0.81504  0.56677  1
 O  O3  1  0.19197  0.18496  0.06678  1
 O  O4  1  0.69197  0.31504  0.43323  1
 O  O5  1  0.19197  0.18496  0.43323  1
 O  O6  1  0.30803  0.68496  0.56677  1
 O  O7  1  0.05396  0.63020  0.25000  1
 O  O8  1  0.30803  0.68496  0.93322  1
 O  O9  1  0.69197  0.31504  0.06678  1
 O  O10  1  0.80803  0.81504  0.93322  1
 O  O11  1  0.94604  0.36980  0.75000  1
 O  O12  1  0.55396  0.86980  0.25000  1
