CIF file written using JARVIS-Tools package.
data_BaY2F8
_symmetry_space_group_name_H-M  'C2/m'
_cell_length_a       6.34069
_cell_length_b       6.34069
_cell_length_c       4.28755
_cell_angle_alpha    84.564
_cell_angle_beta     95.436
_cell_angle_gamma    67.1813

_symmetry_Int_Tables_number  12
_chemical_formula_structural  BaY2F8
_chemical_formula_sum  BaY2F8
_cell_volume  156.5409446343547
_cell_formula_units_Z  1
loop_
  _symmetry_equiv_pos_site_id
 _symmetry_equiv_pos_as_xyz
 1  'x, y, z'
loop_
 _atom_site_type_symbol
 _atom_site_label
 _atom_site_symmetry_multiplicity
 _atom_site_fract_x
 _atom_site_fract_y
 _atom_site_fract_z
 _atom_site_fract_occupancy
 Ba  Ba1  1  0.00307  0.99693  0.99998  1
 F  F1  1  0.05103  0.66965  0.56414  1
 F  F2  1  0.33035  0.94897  0.56414  1
 F  F3  1  0.39459  0.60541  0.22063  1
 F  F4  1  0.74407  0.73784  -0.00000  1
 F  F5  1  0.26216  0.25593  -0.00000  1
 F  F6  1  0.61153  0.38847  0.77935  1
 F  F7  1  0.67584  0.04486  0.43589  1
 F  F8  1  0.95514  0.32416  0.43589  1
 Y  Y1  1  0.32716  0.32100  0.50000  1
 Y  Y2  1  0.67900  0.67284  0.50000  1
