CIF file written using JARVIS-Tools package.
data_LiTiCoO4
_symmetry_space_group_name_H-M  'P4_322'
_cell_length_a       5.90489
_cell_length_b       5.90489
_cell_length_c       8.24513
_cell_angle_alpha    90
_cell_angle_beta     90
_cell_angle_gamma    90

_symmetry_Int_Tables_number  95
_chemical_formula_structural  LiTiCoO4
_chemical_formula_sum  Li4Ti4Co4O6
_cell_volume  287.4890856025873
_cell_formula_units_Z  4
loop_
  _symmetry_equiv_pos_site_id
 _symmetry_equiv_pos_as_xyz
 1  'x, y, z'
loop_
 _atom_site_type_symbol
 _atom_site_label
 _atom_site_symmetry_multiplicity
 _atom_site_fract_x
 _atom_site_fract_y
 _atom_site_fract_z
 _atom_site_fract_occupancy
 Co  Co1  1  0.74412  0.74412  0.12500  1
 Co  Co2  1  0.25588  0.25588  0.62500  1
 Co  Co3  1  0.25588  0.74412  0.87500  1
 Co  Co4  1  0.74412  0.25588  0.37500  1
 Li  Li1  1  0.00000  0.22709  0.00000  1
 Li  Li2  1  0.77291  0.00000  0.75000  1
 Li  Li3  1  0.22709  0.00000  0.25000  1
 Li  Li4  1  0.00000  0.77291  0.50000  1
 O  O1  1  0.98951  0.26346  0.74508  1
 O  O2  1  0.26346  0.01049  0.99508  1
 O  O3  1  0.26346  0.98951  0.50492  1
 O  O4  1  0.48674  0.73705  0.26209  1
 O  O5  1  0.26295  0.48674  0.01209  1
 O  O6  1  0.26295  0.51326  0.48791  1
 O  O7  1  0.01049  0.73654  0.24508  1
 O  O8  1  0.01049  0.26346  0.25492  1
 O  O9  1  0.51326  0.26295  0.76209  1
 O  O10  1  0.73654  0.01049  0.00492  1
 O  O11  1  0.73705  0.51326  0.51209  1
 O  O12  1  0.73705  0.48674  0.98791  1
 O  O13  1  0.48674  0.26295  0.23791  1
 O  O14  1  0.73654  0.98951  0.49508  1
 O  O15  1  0.51326  0.73705  0.73791  1
 O  O16  1  0.98951  0.73654  0.75492  1
 Ti  Ti1  1  0.77667  0.50000  0.75000  1
 Ti  Ti2  1  0.50000  0.77667  0.50000  1
 Ti  Ti3  1  0.50000  0.22333  0.00000  1
 Ti  Ti4  1  0.22333  0.50000  0.25000  1
