CIF file written using JARVIS-Tools package.
data_MnO
_symmetry_space_group_name_H-M  'P6_3mc'
_cell_length_a       2.60214
_cell_length_b       2.60211
_cell_length_c       6.2025
_cell_angle_alpha    90
_cell_angle_beta     90
_cell_angle_gamma    120

_symmetry_Int_Tables_number  186
_chemical_formula_structural  MnO
_chemical_formula_sum  Mn2O2
_cell_volume  36.370573486026956
_cell_formula_units_Z  2
loop_
  _symmetry_equiv_pos_site_id
 _symmetry_equiv_pos_as_xyz
 1  'x, y, z'
loop_
 _atom_site_type_symbol
 _atom_site_label
 _atom_site_symmetry_multiplicity
 _atom_site_fract_x
 _atom_site_fract_y
 _atom_site_fract_z
 _atom_site_fract_occupancy
 Mn  Mn1  1  0.66674  0.33349  0.53673  1
 Mn  Mn2  1  0.33326  0.66651  0.03673  1
 O  O1  1  0.66660  0.33320  0.84970  1
 O  O2  1  0.33340  0.66680  0.34970  1
