CIF file written using JARVIS-Tools package.
data_MnP4
_symmetry_space_group_name_H-M  'P2_1/c'
_cell_length_a       4.81978
_cell_length_b       13.7114
_cell_length_c       7.02374
_cell_angle_alpha    90
_cell_angle_beta     102.228
_cell_angle_gamma    90

_symmetry_Int_Tables_number  14
_chemical_formula_structural  MnP4
_chemical_formula_sum  Mn6P24
_cell_volume  453.64064558817546
_cell_formula_units_Z  6
loop_
  _symmetry_equiv_pos_site_id
 _symmetry_equiv_pos_as_xyz
 1  'x, y, z'
loop_
 _atom_site_type_symbol
 _atom_site_label
 _atom_site_symmetry_multiplicity
 _atom_site_fract_x
 _atom_site_fract_y
 _atom_site_fract_z
 _atom_site_fract_occupancy
 Mn  Mn1  1  0.00000  0.50000  0.50000  1
 Mn  Mn2  1  0.13014  0.33567  0.85749  1
 Mn  Mn3  1  0.00000  0.00000  0.00000  1
 Mn  Mn4  1  0.13014  0.16433  0.35749  1
 Mn  Mn5  1  0.86986  0.83567  0.64251  1
 Mn  Mn6  1  0.86986  0.66433  0.14251  1
 P  P1  1  0.92112  0.22489  0.61620  1
 P  P2  1  0.48998  0.22146  0.94683  1
 P  P3  1  0.36958  0.05661  0.56325  1
 P  P4  1  0.35802  0.39099  0.63105  1
 P  P5  1  0.21165  0.94874  0.75189  1
 P  P6  1  0.26255  0.61385  0.70835  1
 P  P7  1  0.35802  0.10901  0.13105  1
 P  P8  1  0.07888  0.77511  0.38380  1
 P  P9  1  0.07888  0.72489  0.88380  1
 P  P10  1  0.21165  0.55126  0.25189  1
 P  P11  1  0.26255  0.88615  0.20835  1
 P  P12  1  0.78835  0.05126  0.24811  1
 P  P13  1  0.63042  0.94339  0.43675  1
 P  P14  1  0.51002  0.72146  0.55317  1
 P  P15  1  0.73745  0.38615  0.29165  1
 P  P16  1  0.63042  0.55661  0.93675  1
 P  P17  1  0.64198  0.60901  0.36895  1
 P  P18  1  0.78835  0.44874  0.74811  1
 P  P19  1  0.51002  0.77854  0.05317  1
 P  P20  1  0.73745  0.11385  0.79165  1
 P  P21  1  0.64198  0.89099  0.86895  1
 P  P22  1  0.48998  0.27854  0.44683  1
 P  P23  1  0.36958  0.44339  0.06325  1
 P  P24  1  0.92112  0.27511  0.11620  1
