CIF file written using JARVIS-Tools package.
data_Mn5Si4O14
_symmetry_space_group_name_H-M  'P-1'
_cell_length_a       5.65349
_cell_length_b       7.48943
_cell_length_c       8.08712
_cell_angle_alpha    115.814
_cell_angle_beta     85.3945
_cell_angle_gamma    108.21

_symmetry_Int_Tables_number  2
_chemical_formula_structural  Mn5Si4O14
_chemical_formula_sum  Mn5Si4O4
_cell_volume  292.1877567728711
_cell_formula_units_Z  1
loop_
  _symmetry_equiv_pos_site_id
 _symmetry_equiv_pos_as_xyz
 1  'x, y, z'
loop_
 _atom_site_type_symbol
 _atom_site_label
 _atom_site_symmetry_multiplicity
 _atom_site_fract_x
 _atom_site_fract_y
 _atom_site_fract_z
 _atom_site_fract_occupancy
 Mn  Mn1  1  0.00000  0.00000  0.00000  1
 Mn  Mn2  1  0.09786  0.42446  0.79340  1
 Mn  Mn3  1  0.65677  0.57190  0.71188  1
 Mn  Mn4  1  0.34323  0.42810  0.28812  1
 Mn  Mn5  1  0.90214  0.57554  0.20660  1
 O  O1  1  0.81208  0.31491  0.94087  1
 O  O2  1  0.83410  0.34128  0.59999  1
 O  O3  1  0.16590  0.65872  0.40001  1
 O  O4  1  0.41905  0.35925  0.79667  1
 O  O5  1  -0.00076  0.18957  0.25497  1
 O  O6  1  0.52330  0.02091  0.31313  1
 O  O7  1  0.33029  0.17709  0.01927  1
 O  O8  1  0.66971  0.82291  0.98073  1
 O  O9  1  0.00076  0.81043  0.74503  1
 O  O10  1  0.67458  0.41402  0.35227  1
 O  O11  1  0.58095  0.64075  0.20333  1
 O  O12  1  0.47670  0.97909  0.68687  1
 O  O13  1  0.32542  0.58598  0.64773  1
 O  O14  1  0.18792  0.68509  0.05913  1
 Si  Si1  1  0.48237  0.78846  0.14158  1
 Si  Si2  1  0.24182  0.76378  0.62072  1
 Si  Si3  1  0.75818  0.23622  0.37928  1
 Si  Si4  1  0.51763  0.21154  0.85842  1
