CIF file written using JARVIS-Tools package.
data_B2C3N6
_symmetry_space_group_name_H-M  'R-3c'
_cell_length_a       6.86397
_cell_length_b       6.86397
_cell_length_c       6.86397
_cell_angle_alpha    75.6837
_cell_angle_beta     75.6837
_cell_angle_gamma    75.6838

_symmetry_Int_Tables_number  167
_chemical_formula_structural  B2C3N6
_chemical_formula_sum  B4C6N2
_cell_volume  297.58905419406256
_cell_formula_units_Z  2
loop_
  _symmetry_equiv_pos_site_id
 _symmetry_equiv_pos_as_xyz
 1  'x, y, z'
loop_
 _atom_site_type_symbol
 _atom_site_label
 _atom_site_symmetry_multiplicity
 _atom_site_fract_x
 _atom_site_fract_y
 _atom_site_fract_z
 _atom_site_fract_occupancy
 B  B1  1  0.39373  0.39373  0.39373  1
 B  B2  1  0.60627  0.60627  0.60627  1
 B  B3  1  0.10627  0.10627  0.10627  1
 B  B4  1  0.89373  0.89373  0.89373  1
 C  C1  1  0.32007  0.75000  0.17993  1
 C  C2  1  0.67993  0.25000  0.82007  1
 C  C3  1  0.25000  0.82007  0.67993  1
 C  C4  1  0.82007  0.67993  0.25000  1
 C  C5  1  0.17993  0.32007  0.75000  1
 C  C6  1  0.75000  0.17993  0.32007  1
 N  N1  1  0.88941  0.72823  0.06801  1
 N  N2  1  0.06801  0.88941  0.72823  1
 N  N3  1  0.77177  0.61059  0.43199  1
 N  N4  1  0.93199  0.11059  0.27177  1
 N  N5  1  0.61059  0.43199  0.77177  1
 N  N6  1  0.11059  0.27177  0.93199  1
 N  N7  1  0.56801  0.22823  0.38941  1
 N  N8  1  0.22823  0.38941  0.56801  1
 N  N9  1  0.43199  0.77177  0.61059  1
 N  N10  1  0.38941  0.56801  0.22823  1
 N  N11  1  0.27177  0.93199  0.11059  1
 N  N12  1  0.72823  0.06801  0.88941  1
