CIF file written using JARVIS-Tools package.
data_VOF
_symmetry_space_group_name_H-M  'P2/m'
_cell_length_a       4.6781
_cell_length_b       3.02539
_cell_length_c       18.7653
_cell_angle_alpha    90
_cell_angle_beta     92.2637
_cell_angle_gamma    90

_symmetry_Int_Tables_number  10
_chemical_formula_structural  VOF
_chemical_formula_sum  V8O8F8
_cell_volume  265.37997760691854
_cell_formula_units_Z  8
loop_
  _symmetry_equiv_pos_site_id
 _symmetry_equiv_pos_as_xyz
 1  'x, y, z'
loop_
 _atom_site_type_symbol
 _atom_site_label
 _atom_site_symmetry_multiplicity
 _atom_site_fract_x
 _atom_site_fract_y
 _atom_site_fract_z
 _atom_site_fract_occupancy
 F  F1  1  0.23342  0.50000  0.32614  1
 F  F2  1  0.16381  0.50000  0.82827  1
 F  F3  1  0.28018  0.00000  0.94882  1
 F  F4  1  0.71982  0.00000  0.05118  1
 F  F5  1  0.83619  0.50000  0.17173  1
 F  F6  1  0.80908  0.50000  0.42386  1
 F  F7  1  0.76658  0.50000  0.67386  1
 F  F8  1  0.19092  0.50000  0.57614  1
 O  O1  1  0.77509  0.50000  0.92467  1
 O  O2  1  0.73851  0.00000  0.29886  1
 O  O3  1  0.69551  0.00000  0.54971  1
 O  O4  1  0.65961  0.00000  0.79943  1
 O  O5  1  0.26149  0.00000  0.70114  1
 O  O6  1  0.30449  0.00000  0.45029  1
 O  O7  1  0.22491  0.50000  0.07533  1
 O  O8  1  0.34039  0.00000  0.20057  1
 V  V1  1  0.50000  0.50000  0.50000  1
 V  V2  1  0.45658  0.50000  0.74992  1
 V  V3  1  0.54342  0.50000  0.25008  1
 V  V4  1  0.50000  0.50000  0.00000  1
 V  V5  1  0.02104  0.00000  0.37496  1
 V  V6  1  0.97896  0.00000  0.62504  1
 V  V7  1  0.08202  0.00000  0.12491  1
 V  V8  1  0.91798  0.00000  0.87509  1
