CIF file written using JARVIS-Tools package.
data_TiV4CoO12
_symmetry_space_group_name_H-M  'C2'
_cell_length_a       6.68528
_cell_length_b       6.68529
_cell_length_c       5.63968
_cell_angle_alpha    74.8148
_cell_angle_beta     105.185
_cell_angle_gamma    96.0486

_symmetry_Int_Tables_number  5
_chemical_formula_structural  TiV4CoO12
_chemical_formula_sum  TiV4CoO2
_cell_volume  234.57724214572113
_cell_formula_units_Z  1
loop_
  _symmetry_equiv_pos_site_id
 _symmetry_equiv_pos_as_xyz
 1  'x, y, z'
loop_
 _atom_site_type_symbol
 _atom_site_label
 _atom_site_symmetry_multiplicity
 _atom_site_fract_x
 _atom_site_fract_y
 _atom_site_fract_z
 _atom_site_fract_occupancy
 Co  Co1  1  0.08224  0.08224  0.75000  1
 O  O1  1  0.63541  0.92440  0.24929  1
 O  O2  1  0.02862  0.81643  0.63795  1
 O  O3  1  0.08749  0.36236  0.77744  1
 O  O4  1  0.92440  0.63541  0.25071  1
 O  O5  1  0.38451  0.65713  0.56152  1
 O  O6  1  0.18600  0.97256  0.12903  1
 O  O7  1  0.33469  0.62299  0.06241  1
 O  O8  1  0.65713  0.38451  0.93848  1
 O  O9  1  0.97256  0.18600  0.37097  1
 O  O10  1  0.62299  0.33469  0.43759  1
 O  O11  1  0.81643  0.02862  0.86205  1
 O  O12  1  0.36236  0.08749  0.72256  1
 Ti  Ti1  1  0.91420  0.91420  0.25000  1
 V  V1  1  0.80060  0.38898  0.24591  1
 V  V2  1  0.60393  0.19748  0.74792  1
 V  V3  1  0.38898  0.80060  0.25409  1
 V  V4  1  0.19748  0.60393  0.75208  1
