CIF file written using JARVIS-Tools package.
data_LiVF5
_symmetry_space_group_name_H-M  'Pnna'
_cell_length_a       6.00494
_cell_length_b       6.3354
_cell_length_c       8.78709
_cell_angle_alpha    90
_cell_angle_beta     90
_cell_angle_gamma    90

_symmetry_Int_Tables_number  52
_chemical_formula_structural  LiVF5
_chemical_formula_sum  Li4V4F20
_cell_volume  334.29296879330485
_cell_formula_units_Z  4
loop_
  _symmetry_equiv_pos_site_id
 _symmetry_equiv_pos_as_xyz
 1  'x, y, z'
loop_
 _atom_site_type_symbol
 _atom_site_label
 _atom_site_symmetry_multiplicity
 _atom_site_fract_x
 _atom_site_fract_y
 _atom_site_fract_z
 _atom_site_fract_occupancy
 F  F1  1  0.04082  0.96383  0.79447  1
 F  F2  1  0.38208  0.00623  0.00000  1
 F  F3  1  0.82025  0.19830  -0.02633  1
 F  F4  1  0.82026  0.81415  0.02650  1
 F  F5  1  0.95918  0.46383  0.20553  1
 F  F6  1  0.04104  0.04871  0.20556  1
 F  F7  1  0.17975  0.69830  0.02633  1
 F  F8  1  0.45918  0.96383  0.29447  1
 F  F9  1  0.32026  0.31415  0.47350  1
 F  F10  1  0.54104  0.54871  0.29444  1
 F  F11  1  0.88208  0.50623  0.50000  1
 F  F12  1  0.45896  0.04871  0.70556  1
 F  F13  1  0.11792  0.00623  0.50000  1
 F  F14  1  0.61792  0.50623  1.00000  1
 F  F15  1  0.95896  0.54871  0.79444  1
 F  F16  1  0.17974  0.31415  0.97350  1
 F  F17  1  0.54082  0.46383  0.70553  1
 F  F18  1  0.67974  0.81415  0.52650  1
 F  F19  1  0.67975  0.19830  0.47367  1
 F  F20  1  0.32025  0.69830  0.52633  1
 Li  Li1  1  0.49984  0.25636  0.86569  1
 Li  Li2  1  0.99984  0.75636  0.63431  1
 Li  Li3  1  0.00016  0.25636  0.36569  1
 Li  Li4  1  0.50016  0.75636  0.13431  1
 V  V1  1  0.92149  0.50622  0.99999  1
 V  V2  1  0.42149  0.00622  0.50001  1
 V  V3  1  0.57851  0.50622  0.49999  1
 V  V4  1  0.07851  0.00622  0.00001  1
