CIF file written using JARVIS-Tools package.
data_Li4Ni3O2F6
_symmetry_space_group_name_H-M  'P-1'
_cell_length_a       5.09995
_cell_length_b       5.09269
_cell_length_c       5.85736
_cell_angle_alpha    89.7552
_cell_angle_beta     106.888
_cell_angle_gamma    99.9579

_symmetry_Int_Tables_number  2
_chemical_formula_structural  Li4Ni3O2F6
_chemical_formula_sum  Li4Ni3O2F6
_cell_volume  143.2060805587902
_cell_formula_units_Z  1
loop_
  _symmetry_equiv_pos_site_id
 _symmetry_equiv_pos_as_xyz
 1  'x, y, z'
loop_
 _atom_site_type_symbol
 _atom_site_label
 _atom_site_symmetry_multiplicity
 _atom_site_fract_x
 _atom_site_fract_y
 _atom_site_fract_z
 _atom_site_fract_occupancy
 F  F1  1  0.23147  0.13051  0.17491  1
 F  F2  1  0.77965  0.86752  0.31065  1
 F  F3  1  0.76078  0.39958  0.56625  1
 F  F4  1  0.23922  0.60042  0.43375  1
 F  F5  1  0.76853  0.86949  0.82509  1
 F  F6  1  0.22035  0.13248  0.68935  1
 Li  Li1  1  0.98190  0.26195  0.87249  1
 Li  Li2  1  0.01810  0.73805  0.12751  1
 Li  Li3  1  0.98804  0.23907  0.36944  1
 Li  Li4  1  0.01196  0.76093  0.63056  1
 Ni  Ni1  1  0.50000  0.00000  0.00000  1
 Ni  Ni2  1  0.50189  0.49919  0.23971  1
 Ni  Ni3  1  0.49811  0.50081  0.76029  1
 O  O1  1  0.72532  0.36103  0.05596  1
 O  O2  1  0.27468  0.63897  0.94404  1
