CIF file written using JARVIS-Tools package.
data_Li14Mn2O9
_symmetry_space_group_name_H-M  'P-3'
_cell_length_a       5.80737
_cell_length_b       5.80737
_cell_length_c       7.98464
_cell_angle_alpha    90
_cell_angle_beta     90
_cell_angle_gamma    120

_symmetry_Int_Tables_number  147
_chemical_formula_structural  Li14Mn2O9
_chemical_formula_sum  Li4Mn2O9
_cell_volume  233.20866788048355
_cell_formula_units_Z  1
loop_
  _symmetry_equiv_pos_site_id
 _symmetry_equiv_pos_as_xyz
 1  'x, y, z'
loop_
 _atom_site_type_symbol
 _atom_site_label
 _atom_site_symmetry_multiplicity
 _atom_site_fract_x
 _atom_site_fract_y
 _atom_site_fract_z
 _atom_site_fract_occupancy
 Li  Li1  1  0.35859  0.29735  0.09473  1
 Li  Li2  1  0.70265  0.06124  0.09473  1
 Li  Li3  1  0.68767  0.62622  0.41432  1
 Li  Li4  1  0.00000  0.00000  0.73968  1
 Li  Li5  1  0.00000  0.00000  0.26032  1
 Li  Li6  1  0.93876  0.64141  0.09473  1
 Li  Li7  1  0.62622  0.93855  0.58568  1
 Li  Li8  1  0.37378  0.06145  0.41432  1
 Li  Li9  1  0.93855  0.31233  0.41432  1
 Li  Li10  1  0.29735  0.93876  0.90527  1
 Li  Li11  1  0.06124  0.35859  0.90527  1
 Li  Li12  1  0.31233  0.37378  0.58568  1
 Li  Li13  1  0.64141  0.70265  0.90527  1
 Li  Li14  1  0.06145  0.68767  0.58568  1
 Mn  Mn1  1  0.66667  0.33333  0.74704  1
 Mn  Mn2  1  0.33333  0.66667  0.25296  1
 O  O1  1  0.31073  0.33108  0.34139  1
 O  O2  1  0.68927  0.66892  0.65861  1
 O  O3  1  0.66667  0.33333  0.99434  1
 O  O4  1  0.33333  0.66667  0.00566  1
 O  O5  1  0.02036  0.68927  0.34139  1
 O  O6  1  0.97964  0.31073  0.65861  1
 O  O7  1  0.00000  0.00000  0.00000  1
 O  O8  1  0.33108  0.02036  0.65861  1
 O  O9  1  0.66892  0.97964  0.34139  1
