CIF file written using JARVIS-Tools package.
data_Mn2OF3
_symmetry_space_group_name_H-M  'Pnma'
_cell_length_a       4.88574
_cell_length_b       6.1506
_cell_length_c       10.4255
_cell_angle_alpha    90
_cell_angle_beta     90
_cell_angle_gamma    90

_symmetry_Int_Tables_number  62
_chemical_formula_structural  Mn2OF3
_chemical_formula_sum  Mn8O4F2
_cell_volume  313.28891925984965
_cell_formula_units_Z  4
loop_
  _symmetry_equiv_pos_site_id
 _symmetry_equiv_pos_as_xyz
 1  'x, y, z'
loop_
 _atom_site_type_symbol
 _atom_site_label
 _atom_site_symmetry_multiplicity
 _atom_site_fract_x
 _atom_site_fract_y
 _atom_site_fract_z
 _atom_site_fract_occupancy
 F  F1  1  0.74594  0.75000  0.90955  1
 F  F2  1  0.72993  0.48794  0.66186  1
 F  F3  1  0.72993  0.01206  0.66186  1
 F  F4  1  0.24594  0.25000  0.59045  1
 F  F5  1  0.75406  0.75000  0.40955  1
 F  F6  1  0.27007  0.98794  0.33814  1
 F  F7  1  0.27007  0.51206  0.33814  1
 F  F8  1  0.77007  0.48794  0.16186  1
 F  F9  1  0.77007  0.01206  0.16186  1
 F  F10  1  0.25406  0.25000  0.09045  1
 F  F11  1  0.22993  0.98794  0.83814  1
 F  F12  1  0.22993  0.51206  0.83814  1
 Mn  Mn1  1  0.00000  0.00000  0.00000  1
 Mn  Mn2  1  0.48424  0.75000  0.75952  1
 Mn  Mn3  1  0.98424  0.25000  0.74048  1
 Mn  Mn4  1  0.50000  0.50000  0.50000  1
 Mn  Mn5  1  0.50000  0.00000  0.50000  1
 Mn  Mn6  1  0.01576  0.75000  0.25952  1
 Mn  Mn7  1  0.51576  0.25000  0.24048  1
 Mn  Mn8  1  0.00000  0.50000  0.00000  1
 O  O1  1  0.84583  0.25000  0.92202  1
 O  O2  1  0.34583  0.75000  0.57798  1
 O  O3  1  0.15417  0.75000  0.07798  1
 O  O4  1  0.65417  0.25000  0.42202  1
