CIF file written using JARVIS-Tools package.
data_ZnSeO4
_symmetry_space_group_name_H-M  'Pmn2_1'
_cell_length_a       4.84804
_cell_length_b       4.95275
_cell_length_c       6.01073
_cell_angle_alpha    90
_cell_angle_beta     90
_cell_angle_gamma    90

_symmetry_Int_Tables_number  31
_chemical_formula_structural  ZnSeO4
_chemical_formula_sum  Zn2Se2O8
_cell_volume  144.32419314854005
_cell_formula_units_Z  2
loop_
  _symmetry_equiv_pos_site_id
 _symmetry_equiv_pos_as_xyz
 1  'x, y, z'
loop_
 _atom_site_type_symbol
 _atom_site_label
 _atom_site_symmetry_multiplicity
 _atom_site_fract_x
 _atom_site_fract_y
 _atom_site_fract_z
 _atom_site_fract_occupancy
 O  O1  1  0.62464  0.33436  0.00000  1
 O  O2  1  0.18232  0.68560  0.00000  1
 O  O3  1  0.66711  0.82407  0.21567  1
 O  O4  1  0.16711  0.17593  0.28433  1
 O  O5  1  0.68232  0.31440  0.50000  1
 O  O6  1  0.12464  0.66564  0.50000  1
 O  O7  1  0.16711  0.17593  0.71567  1
 O  O8  1  0.66711  0.82407  0.78433  1
 Se  Se1  1  0.52222  0.65133  0.00000  1
 Se  Se2  1  0.02222  0.34867  0.50000  1
 Zn  Zn1  1  0.96466  0.06810  0.00000  1
 Zn  Zn2  1  0.46466  0.93190  0.50000  1
