CIF file written using JARVIS-Tools package.
data_GeBi2Te4
_symmetry_space_group_name_H-M  'R-3m'
_cell_length_a       14.1825
_cell_length_b       14.1825
_cell_length_c       14.1826
_cell_angle_alpha    17.8245
_cell_angle_beta     17.8244
_cell_angle_gamma    17.8245

_symmetry_Int_Tables_number  166
_chemical_formula_structural  GeBi2Te4
_chemical_formula_sum  GeBi2Te4
_cell_volume  233.3524022118659
_cell_formula_units_Z  1
loop_
  _symmetry_equiv_pos_site_id
 _symmetry_equiv_pos_as_xyz
 1  'x, y, z'
loop_
 _atom_site_type_symbol
 _atom_site_label
 _atom_site_symmetry_multiplicity
 _atom_site_fract_x
 _atom_site_fract_y
 _atom_site_fract_z
 _atom_site_fract_occupancy
 Bi  Bi1  1  0.42363  0.42363  0.42363  1
 Bi  Bi2  1  0.57637  0.57637  0.57637  1
 Ge  Ge1  1  0.00000  0.00000  0.00000  1
 Te  Te1  1  0.13230  0.13230  0.13230  1
 Te  Te2  1  0.70667  0.70667  0.70667  1
 Te  Te3  1  0.86770  0.86770  0.86770  1
 Te  Te4  1  0.29333  0.29333  0.29333  1
