CIF file written using JARVIS-Tools package.
data_TaFeO4
_symmetry_space_group_name_H-M  'P2/c'
_cell_length_a       4.67303
_cell_length_b       5.67888
_cell_length_c       5.03479
_cell_angle_alpha    90
_cell_angle_beta     90.2499
_cell_angle_gamma    90

_symmetry_Int_Tables_number  13
_chemical_formula_structural  TaFeO4
_chemical_formula_sum  Ta2Fe2O8
_cell_volume  133.6100086829969
_cell_formula_units_Z  2
loop_
  _symmetry_equiv_pos_site_id
 _symmetry_equiv_pos_as_xyz
 1  'x, y, z'
loop_
 _atom_site_type_symbol
 _atom_site_label
 _atom_site_symmetry_multiplicity
 _atom_site_fract_x
 _atom_site_fract_y
 _atom_site_fract_z
 _atom_site_fract_occupancy
 Fe  Fe1  1  0.50000  0.66793  0.75000  1
 Fe  Fe2  1  0.50000  0.33207  0.25000  1
 O  O1  1  0.73147  0.38390  0.91752  1
 O  O2  1  0.77398  0.11338  0.42083  1
 O  O3  1  0.73147  0.61610  0.41752  1
 O  O4  1  0.77398  0.88662  0.92083  1
 O  O5  1  0.22602  0.11338  0.07917  1
 O  O6  1  0.26853  0.38390  0.58248  1
 O  O7  1  0.22602  0.88662  0.57917  1
 O  O8  1  0.26853  0.61610  0.08248  1
 Ta  Ta1  1  -0.00000  0.17965  0.75000  1
 Ta  Ta2  1  0.00000  0.82035  0.25000  1
