CIF file written using JARVIS-Tools package.
data_LiCoSi2O6
_symmetry_space_group_name_H-M  'C2/c'
_cell_length_a       6.35736
_cell_length_b       6.35735
_cell_length_c       5.27598
_cell_angle_alpha    74.6354
_cell_angle_beta     105.365
_cell_angle_gamma    96.5437

_symmetry_Int_Tables_number  15
_chemical_formula_structural  LiCoSi2O6
_chemical_formula_sum  Li2Co2Si4O2
_cell_volume  198.0439046304811
_cell_formula_units_Z  2
loop_
  _symmetry_equiv_pos_site_id
 _symmetry_equiv_pos_as_xyz
 1  'x, y, z'
loop_
 _atom_site_type_symbol
 _atom_site_label
 _atom_site_symmetry_multiplicity
 _atom_site_fract_x
 _atom_site_fract_y
 _atom_site_fract_z
 _atom_site_fract_occupancy
 Co  Co1  1  0.08440  0.08440  0.75000  1
 Co  Co2  1  0.91560  0.91560  0.25000  1
 Li  Li1  1  0.25954  0.25954  0.25000  1
 Li  Li2  1  0.74046  0.74046  0.75000  1
 O  O1  1  0.02440  0.80309  0.63996  1
 O  O2  1  0.90279  0.63731  0.17573  1
 O  O3  1  0.19691  0.97560  0.13996  1
 O  O4  1  0.36113  0.64116  0.54540  1
 O  O5  1  0.09721  0.36269  0.82427  1
 O  O6  1  0.35884  0.63887  0.04540  1
 O  O7  1  0.64116  0.36113  0.95460  1
 O  O8  1  0.63887  0.35884  0.45460  1
 O  O9  1  0.36269  0.09721  0.67573  1
 O  O10  1  0.80309  0.02440  0.86004  1
 O  O11  1  0.63731  0.90279  0.32427  1
 O  O12  1  0.97560  0.19691  0.36004  1
 Si  Si1  1  0.79517  0.39331  0.24573  1
 Si  Si2  1  0.60669  0.20483  0.74573  1
 Si  Si3  1  0.39331  0.79517  0.25427  1
 Si  Si4  1  0.20483  0.60669  0.75427  1
