CIF file written using JARVIS-Tools package.
data_LiVF4
_symmetry_space_group_name_H-M  'P2_1/c'
_cell_length_a       5.22986
_cell_length_b       5.57781
_cell_length_c       10.5983
_cell_angle_alpha    90
_cell_angle_beta     110.982
_cell_angle_gamma    90

_symmetry_Int_Tables_number  14
_chemical_formula_structural  LiVF4
_chemical_formula_sum  Li4V4F6
_cell_volume  288.66497156737597
_cell_formula_units_Z  4
loop_
  _symmetry_equiv_pos_site_id
 _symmetry_equiv_pos_as_xyz
 1  'x, y, z'
loop_
 _atom_site_type_symbol
 _atom_site_label
 _atom_site_symmetry_multiplicity
 _atom_site_fract_x
 _atom_site_fract_y
 _atom_site_fract_z
 _atom_site_fract_occupancy
 F  F1  1  0.50368  0.61424  0.89251  1
 F  F2  1  0.50368  0.88576  0.39251  1
 F  F3  1  0.52608  0.35054  0.36535  1
 F  F4  1  0.00923  0.86657  0.87306  1
 F  F5  1  0.47392  0.64946  0.63465  1
 F  F6  1  0.47392  0.85054  0.13465  1
 F  F7  1  0.49632  0.38576  0.10749  1
 F  F8  1  0.01409  0.38027  0.90345  1
 F  F9  1  -0.00923  0.36657  0.62694  1
 F  F10  1  0.00923  0.63343  0.37306  1
 F  F11  1  0.01409  0.11973  0.40345  1
 F  F12  1  0.49632  0.11424  0.60749  1
 F  F13  1  0.52608  0.14946  0.86535  1
 F  F14  1  -0.01409  0.61973  0.09655  1
 F  F15  1  -0.00923  0.13343  0.12694  1
 F  F16  1  -0.01409  0.88027  0.59655  1
 Li  Li1  1  0.63181  0.86730  0.79267  1
 Li  Li2  1  0.36819  0.36730  0.70733  1
 Li  Li3  1  0.63181  0.63270  0.29267  1
 Li  Li4  1  0.36819  0.13270  0.20733  1
 V  V1  1  0.23881  0.84803  0.49356  1
 V  V2  1  0.76119  0.34803  0.00644  1
 V  V3  1  0.23881  0.65197  0.99356  1
 V  V4  1  0.76119  0.15197  0.50644  1
