CIF file written using JARVIS-Tools package.
data_NiP4
_symmetry_space_group_name_H-M  'P2_1/c'
_cell_length_a       4.84097
_cell_length_b       14.1566
_cell_length_c       7.07648
_cell_angle_alpha    90
_cell_angle_beta     101.694
_cell_angle_gamma    90

_symmetry_Int_Tables_number  14
_chemical_formula_structural  NiP4
_chemical_formula_sum  Ni6P24
_cell_volume  474.8976574037287
_cell_formula_units_Z  6
loop_
  _symmetry_equiv_pos_site_id
 _symmetry_equiv_pos_as_xyz
 1  'x, y, z'
loop_
 _atom_site_type_symbol
 _atom_site_label
 _atom_site_symmetry_multiplicity
 _atom_site_fract_x
 _atom_site_fract_y
 _atom_site_fract_z
 _atom_site_fract_occupancy
 Ni  Ni1  1  0.00000  0.50000  0.50000  1
 Ni  Ni2  1  0.14416  0.32973  0.87805  1
 Ni  Ni3  1  0.00000  0.00000  0.00000  1
 Ni  Ni4  1  0.14416  0.17027  0.37805  1
 Ni  Ni5  1  0.85584  0.82973  0.62195  1
 Ni  Ni6  1  0.85584  0.67027  0.12195  1
 P  P1  1  0.92533  0.22765  0.62291  1
 P  P2  1  0.50458  0.21639  0.95264  1
 P  P3  1  0.37700  0.05458  0.57224  1
 P  P4  1  0.35924  0.39266  0.63566  1
 P  P5  1  0.21073  0.94864  0.75377  1
 P  P6  1  0.25279  0.61542  0.70869  1
 P  P7  1  0.35924  0.10734  0.13566  1
 P  P8  1  0.07467  0.77235  0.37709  1
 P  P9  1  0.07467  0.72765  0.87709  1
 P  P10  1  0.21073  0.55136  0.25377  1
 P  P11  1  0.25279  0.88458  0.20869  1
 P  P12  1  0.78927  0.05136  0.24623  1
 P  P13  1  0.62300  0.94542  0.42776  1
 P  P14  1  0.49542  0.71639  0.54736  1
 P  P15  1  0.74721  0.38458  0.29131  1
 P  P16  1  0.62300  0.55458  0.92776  1
 P  P17  1  0.64076  0.60734  0.36434  1
 P  P18  1  0.78927  0.44864  0.74623  1
 P  P19  1  0.49542  0.78361  0.04736  1
 P  P20  1  0.74721  0.11542  0.79131  1
 P  P21  1  0.64076  0.89266  0.86434  1
 P  P22  1  0.50458  0.28361  0.45264  1
 P  P23  1  0.37700  0.44542  0.07224  1
 P  P24  1  0.92533  0.27235  0.12291  1
