CIF file written using JARVIS-Tools package.
data_Li2Mn7F16
_symmetry_space_group_name_H-M  'R-3'
_cell_length_a       6.43318
_cell_length_b       9.3734
_cell_length_c       6.43318
_cell_angle_alpha    110.07
_cell_angle_beta     60
_cell_angle_gamma    110.07

_symmetry_Int_Tables_number  148
_chemical_formula_structural  Li2Mn7F16
_chemical_formula_sum  Li2Mn7F6
_cell_volume  308.45347834575193
_cell_formula_units_Z  1
loop_
  _symmetry_equiv_pos_site_id
 _symmetry_equiv_pos_as_xyz
 1  'x, y, z'
loop_
 _atom_site_type_symbol
 _atom_site_label
 _atom_site_symmetry_multiplicity
 _atom_site_fract_x
 _atom_site_fract_y
 _atom_site_fract_z
 _atom_site_fract_occupancy
 F  F1  1  0.62275  0.88717  0.07463  1
 F  F2  1  0.22057  0.66171  0.22057  1
 F  F3  1  0.18979  0.88717  0.62275  1
 F  F4  1  0.17492  0.40493  0.40101  1
 F  F5  1  0.81021  0.11283  0.37725  1
 F  F6  1  -0.07463  0.11283  0.81021  1
 F  F7  1  0.37725  0.11283  -0.07463  1
 F  F8  1  0.17101  0.59507  0.82508  1
 F  F9  1  0.40284  0.20852  0.40284  1
 F  F10  1  0.59716  0.79148  0.59716  1
 F  F11  1  0.40101  0.40493  0.82899  1
 F  F12  1  0.59899  0.59507  0.17101  1
 F  F13  1  0.77943  0.33829  0.77943  1
 F  F14  1  0.82899  0.40493  0.17492  1
 F  F15  1  0.82508  0.59507  0.59899  1
 F  F16  1  0.07463  0.88717  0.18979  1
 Li  Li1  1  0.67475  0.02424  0.67475  1
 Li  Li2  1  0.32525  -0.02424  0.32525  1
 Mn  Mn1  1  0.73255  0.33016  0.48292  1
 Mn  Mn2  1  0.88531  0.66984  0.26745  1
 Mn  Mn3  1  0.51708  0.66984  0.88531  1
 Mn  Mn4  1  0.48292  0.33016  0.11469  1
 Mn  Mn5  1  0.11469  0.33016  0.73255  1
 Mn  Mn6  1  0.26745  0.66984  0.51708  1
 Mn  Mn7  1  0.00000  0.00000  0.00000  1
