CIF file written using JARVIS-Tools package.
data_Sr5Ta4O15
_symmetry_space_group_name_H-M  'P-3m1'
_cell_length_a       5.69637
_cell_length_b       5.69637
_cell_length_c       11.5882
_cell_angle_alpha    90
_cell_angle_beta     90
_cell_angle_gamma    120

_symmetry_Int_Tables_number  164
_chemical_formula_structural  Sr5Ta4O15
_chemical_formula_sum  Sr5Ta4O5
_cell_volume  325.642904470374
_cell_formula_units_Z  1
loop_
  _symmetry_equiv_pos_site_id
 _symmetry_equiv_pos_as_xyz
 1  'x, y, z'
loop_
 _atom_site_type_symbol
 _atom_site_label
 _atom_site_symmetry_multiplicity
 _atom_site_fract_x
 _atom_site_fract_y
 _atom_site_fract_z
 _atom_site_fract_occupancy
 O  O1  1  0.50000  0.00000  0.00000  1
 O  O2  1  0.16932  0.83068  0.60819  1
 O  O3  1  0.00000  0.50000  0.00000  1
 O  O4  1  0.83525  0.16475  0.80679  1
 O  O5  1  0.16475  0.32951  0.19321  1
 O  O6  1  0.16932  0.33864  0.60819  1
 O  O7  1  0.33864  0.16932  0.39181  1
 O  O8  1  0.16475  0.83525  0.19321  1
 O  O9  1  0.50000  0.50000  0.00000  1
 O  O10  1  0.32951  0.16475  0.80679  1
 O  O11  1  0.66136  0.83068  0.60819  1
 O  O12  1  0.83068  0.16932  0.39181  1
 O  O13  1  0.83525  0.67049  0.80679  1
 O  O14  1  0.83068  0.66136  0.39181  1
 O  O15  1  0.67049  0.83525  0.19321  1
 Sr  Sr1  1  0.66667  0.33333  0.56077  1
 Sr  Sr2  1  0.66667  0.33333  0.22231  1
 Sr  Sr3  1  0.00000  0.00000  0.00000  1
 Sr  Sr4  1  0.33333  0.66667  0.77769  1
 Sr  Sr5  1  0.33333  0.66667  0.43923  1
 Ta  Ta1  1  0.66667  0.33333  0.89510  1
 Ta  Ta2  1  0.00000  0.00000  0.68147  1
 Ta  Ta3  1  0.00000  0.00000  0.31853  1
 Ta  Ta4  1  0.33333  0.66667  0.10490  1
