CIF file written using JARVIS-Tools package.
data_Li2FeBO4
_symmetry_space_group_name_H-M  'C2/m'
_cell_length_a       5.0249
_cell_length_b       5.0249
_cell_length_c       6.06928
_cell_angle_alpha    89.1222
_cell_angle_beta     90.8778
_cell_angle_gamma    87.3414

_symmetry_Int_Tables_number  12
_chemical_formula_structural  Li2FeBO4
_chemical_formula_sum  Li4Fe2B2O8
_cell_volume  153.04420649044306
_cell_formula_units_Z  2
loop_
  _symmetry_equiv_pos_site_id
 _symmetry_equiv_pos_as_xyz
 1  'x, y, z'
loop_
 _atom_site_type_symbol
 _atom_site_label
 _atom_site_symmetry_multiplicity
 _atom_site_fract_x
 _atom_site_fract_y
 _atom_site_fract_z
 _atom_site_fract_occupancy
 B  B1  1  0.31814  0.68186  0.25649  1
 B  B2  1  0.68186  0.31814  0.74351  1
 Fe  Fe1  1  0.19523  0.19523  -0.00000  1
 Fe  Fe2  1  0.80477  0.80477  0.00000  1
 Li  Li1  1  0.32330  0.67670  0.71629  1
 Li  Li2  1  0.17654  0.17654  0.50000  1
 Li  Li3  1  0.82346  0.82346  0.50000  1
 Li  Li4  1  0.67670  0.32330  0.28371  1
 O  O1  1  0.19911  0.80089  0.02971  1
 O  O2  1  0.19870  0.80130  0.43768  1
 O  O3  1  0.61498  0.71723  0.24595  1
 O  O4  1  0.28277  0.38502  0.24595  1
 O  O5  1  0.38502  0.28277  0.75405  1
 O  O6  1  0.71723  0.61498  0.75405  1
 O  O7  1  0.80130  0.19870  0.56232  1
 O  O8  1  0.80089  0.19911  0.97029  1
