CIF file written using JARVIS-Tools package.
data_Mn5O5F
_symmetry_space_group_name_H-M  'P3m1'
_cell_length_a       3.45563
_cell_length_b       3.45563
_cell_length_c       14.2924
_cell_angle_alpha    90.0033
_cell_angle_beta     90.0032
_cell_angle_gamma    59.9901

_symmetry_Int_Tables_number  156
_chemical_formula_structural  Mn5O5F
_chemical_formula_sum  Mn5O5F
_cell_volume  147.7901677281844
_cell_formula_units_Z  1
loop_
  _symmetry_equiv_pos_site_id
 _symmetry_equiv_pos_as_xyz
 1  'x, y, z'
loop_
 _atom_site_type_symbol
 _atom_site_label
 _atom_site_symmetry_multiplicity
 _atom_site_fract_x
 _atom_site_fract_y
 _atom_site_fract_z
 _atom_site_fract_occupancy
 F  F1  1  0.66608  0.66618  0.82248  1
 Mn  Mn1  1  0.33332  0.33343  0.13692  1
 Mn  Mn2  1  0.33337  0.33347  0.49588  1
 Mn  Mn3  1  0.66664  0.66674  0.31002  1
 Mn  Mn4  1  0.66663  0.66672  0.96220  1
 Mn  Mn5  1  0.66676  0.66686  0.68250  1
 O  O1  1  0.33334  0.33343  0.27525  1
 O  O2  1  0.33342  0.33351  0.64070  1
 O  O3  1  0.33331  0.33340  0.00040  1
 O  O4  1  0.66658  0.66668  0.13829  1
 O  O5  1  0.66666  0.66676  0.45615  1
