CIF file written using JARVIS-Tools package.
data_Li3Co2O2F3
_symmetry_space_group_name_H-M  'I4/mmm'
_cell_length_a       2.91256
_cell_length_b       2.91256
_cell_length_c       10.6124
_cell_angle_alpha    97.8873
_cell_angle_beta     82.1127
_cell_angle_gamma    90

_symmetry_Int_Tables_number  139
_chemical_formula_structural  Li3Co2O2F3
_chemical_formula_sum  Li3Co2O2F3
_cell_volume  88.31353769074614
_cell_formula_units_Z  1
loop_
  _symmetry_equiv_pos_site_id
 _symmetry_equiv_pos_as_xyz
 1  'x, y, z'
loop_
 _atom_site_type_symbol
 _atom_site_label
 _atom_site_symmetry_multiplicity
 _atom_site_fract_x
 _atom_site_fract_y
 _atom_site_fract_z
 _atom_site_fract_occupancy
 Co  Co1  1  0.39539  0.60461  0.20923  1
 Co  Co2  1  0.80461  0.19539  0.39077  1
 F  F1  1  0.50538  0.49462  0.98925  1
 F  F2  1  0.69462  0.30538  0.61075  1
 F  F3  1  0.10000  0.90000  0.80000  1
 Li  Li1  1  0.00406  0.99594  0.99188  1
 Li  Li2  1  0.19594  0.80406  0.60812  1
 Li  Li3  1  0.60000  0.40000  0.80000  1
 O  O1  1  0.90515  0.09485  0.18969  1
 O  O2  1  0.29485  0.70515  0.41031  1
