CIF file written using JARVIS-Tools package.
data_Li5CrO5
_symmetry_space_group_name_H-M  'C2'
_cell_length_a       4.02533
_cell_length_b       5.06879
_cell_length_c       5.60491
_cell_angle_alpha    107.135
_cell_angle_beta     90.001
_cell_angle_gamma    113.395

_symmetry_Int_Tables_number  5
_chemical_formula_structural  Li5CrO5
_chemical_formula_sum  Li5CrO5
_cell_volume  99.40364325399798
_cell_formula_units_Z  1
loop_
  _symmetry_equiv_pos_site_id
 _symmetry_equiv_pos_as_xyz
 1  'x, y, z'
loop_
 _atom_site_type_symbol
 _atom_site_label
 _atom_site_symmetry_multiplicity
 _atom_site_fract_x
 _atom_site_fract_y
 _atom_site_fract_z
 _atom_site_fract_occupancy
 Cr  Cr1  1  0.07362  0.01119  0.98578  1
 Li  Li1  1  0.31551  0.62917  0.12516  1
 Li  Li2  1  0.29968  0.59468  0.64683  1
 Li  Li3  1  0.71617  0.42769  0.32472  1
 Li  Li4  1  0.69754  0.39321  0.84639  1
 Li  Li5  1  0.98818  0.01119  0.48577  1
 O  O1  1  0.85445  0.72839  0.15309  1
 O  O2  1  0.48960  0.01119  0.98579  1
 O  O3  1  0.84316  0.70387  0.67565  1
 O  O4  1  0.15049  0.31852  0.29591  1
 O  O5  1  0.13725  0.29398  0.81846  1
