CIF file written using JARVIS-Tools package.
data_VOF
_symmetry_space_group_name_H-M  'P2_1/c'
_cell_length_a       5.04191
_cell_length_b       4.88616
_cell_length_c       5.108
_cell_angle_alpha    90
_cell_angle_beta     101.367
_cell_angle_gamma    90

_symmetry_Int_Tables_number  14
_chemical_formula_structural  VOF
_chemical_formula_sum  V4O4F4
_cell_volume  123.37015816365364
_cell_formula_units_Z  4
loop_
  _symmetry_equiv_pos_site_id
 _symmetry_equiv_pos_as_xyz
 1  'x, y, z'
loop_
 _atom_site_type_symbol
 _atom_site_label
 _atom_site_symmetry_multiplicity
 _atom_site_fract_x
 _atom_site_fract_y
 _atom_site_fract_z
 _atom_site_fract_occupancy
 F  F1  1  0.13208  0.79393  0.95445  1
 F  F2  1  0.63208  0.70607  0.95445  1
 F  F3  1  0.36792  0.29393  0.04555  1
 F  F4  1  0.86792  0.20607  0.04555  1
 O  O1  1  0.01005  0.25251  0.53959  1
 O  O2  1  0.51005  0.24749  0.53959  1
 O  O3  1  0.48995  0.75251  0.46041  1
 O  O4  1  0.98995  0.74749  0.46041  1
 V  V1  1  0.29339  0.52692  0.69795  1
 V  V2  1  0.79339  0.97308  0.69795  1
 V  V3  1  0.20661  0.02692  0.30205  1
 V  V4  1  0.70661  0.47308  0.30205  1
