CIF file written using JARVIS-Tools package.
data_SmBi3
_symmetry_space_group_name_H-M  'P6_3/mmc'
_cell_length_a       6.88544
_cell_length_b       6.88544
_cell_length_c       6.03516
_cell_angle_alpha    90
_cell_angle_beta     90
_cell_angle_gamma    120

_symmetry_Int_Tables_number  194
_chemical_formula_structural  SmBi3
_chemical_formula_sum  Sm2Bi6
_cell_volume  247.78977983953837
_cell_formula_units_Z  2
loop_
  _symmetry_equiv_pos_site_id
 _symmetry_equiv_pos_as_xyz
 1  'x, y, z'
loop_
 _atom_site_type_symbol
 _atom_site_label
 _atom_site_symmetry_multiplicity
 _atom_site_fract_x
 _atom_site_fract_y
 _atom_site_fract_z
 _atom_site_fract_occupancy
 Bi  Bi1  1  0.82696  0.65393  0.25000  1
 Bi  Bi2  1  0.34607  0.17304  0.25000  1
 Bi  Bi3  1  0.82696  0.17304  0.25000  1
 Bi  Bi4  1  0.17304  0.34607  0.75000  1
 Bi  Bi5  1  0.65393  0.82696  0.75000  1
 Bi  Bi6  1  0.17304  0.82696  0.75000  1
 Sm  Sm1  1  0.66667  0.33333  0.75000  1
 Sm  Sm2  1  0.33333  0.66667  0.25000  1
