CIF file written using JARVIS-Tools package.
data_Li4MnCr3P4O16
_symmetry_space_group_name_H-M  'Pm'
_cell_length_a       4.73312
_cell_length_b       6.24927
_cell_length_c       10.1523
_cell_angle_alpha    90
_cell_angle_beta     90.7314
_cell_angle_gamma    90

_symmetry_Int_Tables_number  6
_chemical_formula_structural  Li4MnCr3P4O16
_chemical_formula_sum  Li4MnCr3P4O6
_cell_volume  300.2670657737025
_cell_formula_units_Z  1
loop_
  _symmetry_equiv_pos_site_id
 _symmetry_equiv_pos_as_xyz
 1  'x, y, z'
loop_
 _atom_site_type_symbol
 _atom_site_label
 _atom_site_symmetry_multiplicity
 _atom_site_fract_x
 _atom_site_fract_y
 _atom_site_fract_z
 _atom_site_fract_occupancy
 Cr  Cr1  1  0.55389  0.50000  0.21513  1
 Cr  Cr2  1  0.43751  0.00000  0.78657  1
 Cr  Cr3  1  0.05625  0.00000  0.28623  1
 Li  Li1  1  0.99420  0.25329  0.00458  1
 Li  Li2  1  0.99420  0.74671  0.00458  1
 Li  Li3  1  0.50315  0.74750  0.49830  1
 Li  Li4  1  0.50315  0.25250  0.49830  1
 Mn  Mn1  1  0.96490  0.50000  0.71654  1
 O  O1  1  0.78257  0.20143  0.65804  1
 O  O2  1  0.71302  0.19943  0.16243  1
 O  O3  1  0.74381  0.50000  0.90837  1
 O  O4  1  0.80698  0.00000  0.44677  1
 O  O5  1  0.78257  0.79857  0.65804  1
 O  O6  1  0.21632  0.30064  0.33348  1
 O  O7  1  0.68465  0.00000  0.95046  1
 O  O8  1  0.76103  0.50000  0.39869  1
 O  O9  1  0.30020  0.50000  0.05227  1
 O  O10  1  0.24186  0.00000  0.60159  1
 O  O11  1  0.28350  0.30345  0.83803  1
 O  O12  1  0.25065  0.00000  0.10197  1
 O  O13  1  0.71302  0.80057  0.16243  1
 O  O14  1  0.21632  0.69936  0.33348  1
 O  O15  1  0.28350  0.69655  0.83803  1
 O  O16  1  0.21288  0.50000  0.54526  1
 P  P1  1  0.91514  0.00000  0.59289  1
 P  P2  1  0.57737  0.00000  0.09524  1
 P  P3  1  0.41927  0.50000  0.90951  1
 P  P4  1  0.08808  0.50000  0.40280  1
