CIF file written using JARVIS-Tools package.
data_LiVCrP4O14
_symmetry_space_group_name_H-M  'P1'
_cell_length_a       4.81671
_cell_length_b       6.94853
_cell_length_c       7.964
_cell_angle_alpha    90.3435
_cell_angle_beta     90.717
_cell_angle_gamma    107.988

_symmetry_Int_Tables_number  1
_chemical_formula_structural  LiVCrP4O14
_chemical_formula_sum  LiVCrP4O4
_cell_volume  253.4848654402083
_cell_formula_units_Z  1
loop_
  _symmetry_equiv_pos_site_id
 _symmetry_equiv_pos_as_xyz
 1  'x, y, z'
loop_
 _atom_site_type_symbol
 _atom_site_label
 _atom_site_symmetry_multiplicity
 _atom_site_fract_x
 _atom_site_fract_y
 _atom_site_fract_z
 _atom_site_fract_occupancy
 Cr  Cr1  1  0.21328  0.72706  0.00073  1
 Li  Li1  1  0.15796  0.67407  0.63288  1
 O  O1  1  0.96756  0.16505  0.66738  1
 O  O2  1  0.86742  0.10550  0.32280  1
 O  O3  1  0.81931  0.54208  0.96455  1
 O  O4  1  0.12272  0.88820  0.80846  1
 O  O5  1  0.57442  0.37262  0.33074  1
 O  O6  1  0.74144  0.48484  0.65050  1
 O  O7  1  0.41245  0.25100  0.85707  1
 O  O8  1  0.60901  0.74209  0.35337  1
 O  O9  1  0.60268  0.90565  0.06439  1
 O  O10  1  0.38333  0.60698  0.81225  1
 O  O11  1  0.26951  0.51284  0.13843  1
 O  O12  1  0.16197  0.48614  0.45150  1
 O  O13  1  0.41366  0.07971  0.57049  1
 O  O14  1  0.07218  0.85953  0.18199  1
 P  P1  1  0.39325  0.51866  0.31398  1
 P  P2  1  0.22306  0.09153  0.72205  1
 P  P3  1  0.79323  0.90946  0.21891  1
 P  P4  1  0.59804  0.48414  0.82342  1
 V  V1  1  0.77954  0.27002  0.49212  1
