CIF file written using JARVIS-Tools package.
data_MgSnO3
_symmetry_space_group_name_H-M  'Pnma'
_cell_length_a       5.31636
_cell_length_b       5.4373
_cell_length_c       7.81692
_cell_angle_alpha    90
_cell_angle_beta     90
_cell_angle_gamma    90

_symmetry_Int_Tables_number  62
_chemical_formula_structural  MgSnO3
_chemical_formula_sum  Mg4Sn4O2
_cell_volume  225.9606337365919
_cell_formula_units_Z  4
loop_
  _symmetry_equiv_pos_site_id
 _symmetry_equiv_pos_as_xyz
 1  'x, y, z'
loop_
 _atom_site_type_symbol
 _atom_site_label
 _atom_site_symmetry_multiplicity
 _atom_site_fract_x
 _atom_site_fract_y
 _atom_site_fract_z
 _atom_site_fract_occupancy
 Mg  Mg1  1  0.99807  0.95815  0.75000  1
 Mg  Mg2  1  0.50193  0.45815  0.75000  1
 Mg  Mg3  1  0.49807  0.54185  0.25000  1
 Mg  Mg4  1  0.00193  0.04185  0.25000  1
 O  O1  1  0.13529  0.41146  0.25000  1
 O  O2  1  0.83016  0.82472  0.42805  1
 O  O3  1  0.16984  0.17528  0.92805  1
 O  O4  1  0.33016  0.67528  0.57195  1
 O  O5  1  0.16984  0.17528  0.57195  1
 O  O6  1  0.36471  0.91146  0.25000  1
 O  O7  1  0.63529  0.08854  0.75000  1
 O  O8  1  0.66984  0.32472  0.42805  1
 O  O9  1  0.33016  0.67528  0.92805  1
 O  O10  1  0.83016  0.82472  0.07195  1
 O  O11  1  0.66984  0.32472  0.07195  1
 O  O12  1  0.86471  0.58854  0.75000  1
 Sn  Sn1  1  0.50000  0.00000  0.00000  1
 Sn  Sn2  1  0.50000  0.00000  0.50000  1
 Sn  Sn3  1  0.00000  0.50000  0.50000  1
 Sn  Sn4  1  0.00000  0.50000  0.00000  1
