CIF file written using JARVIS-Tools package.
data_BaWN3
_symmetry_space_group_name_H-M  'C2/m'
_cell_length_a       3.93323
_cell_length_b       6.57979
_cell_length_c       7.18288
_cell_angle_alpha    104.787
_cell_angle_beta     105.89
_cell_angle_gamma    90.0001

_symmetry_Int_Tables_number  12
_chemical_formula_structural  BaWN3
_chemical_formula_sum  Ba2W2N6
_cell_volume  172.3788638433054
_cell_formula_units_Z  2
loop_
  _symmetry_equiv_pos_site_id
 _symmetry_equiv_pos_as_xyz
 1  'x, y, z'
loop_
 _atom_site_type_symbol
 _atom_site_label
 _atom_site_symmetry_multiplicity
 _atom_site_fract_x
 _atom_site_fract_y
 _atom_site_fract_z
 _atom_site_fract_occupancy
 Ba  Ba1  1  0.39424  0.68680  0.78849  1
 Ba  Ba2  1  0.60576  0.31320  0.21151  1
 N  N1  1  0.85294  0.40323  0.70589  1
 N  N2  1  0.14706  0.59677  0.29411  1
 N  N3  1  0.96772  0.05873  0.93545  1
 N  N4  1  0.68999  0.97459  0.37998  1
 N  N5  1  0.31001  0.02541  0.62002  1
 N  N6  1  0.03228  0.94127  0.06455  1
 W  W1  1  0.16050  0.87752  0.32100  1
 W  W2  1  0.83950  0.12248  0.67900  1
