CIF file written using JARVIS-Tools package.
data_TlGeCl3
_symmetry_space_group_name_H-M  'P2_1/m'
_cell_length_a       5.73356
_cell_length_b       6.94094
_cell_length_c       7.49023
_cell_angle_alpha    90
_cell_angle_beta     104.905
_cell_angle_gamma    90

_symmetry_Int_Tables_number  11
_chemical_formula_structural  TlGeCl3
_chemical_formula_sum  Tl2Ge2Cl6
_cell_volume  288.05374828816053
_cell_formula_units_Z  2
loop_
  _symmetry_equiv_pos_site_id
 _symmetry_equiv_pos_as_xyz
 1  'x, y, z'
loop_
 _atom_site_type_symbol
 _atom_site_label
 _atom_site_symmetry_multiplicity
 _atom_site_fract_x
 _atom_site_fract_y
 _atom_site_fract_z
 _atom_site_fract_occupancy
 Cl  Cl1  1  0.80347  -0.00185  0.17253  1
 Cl  Cl2  1  0.19653  0.49815  0.82747  1
 Cl  Cl3  1  0.67268  0.75000  0.63868  1
 Cl  Cl4  1  0.32732  0.25000  0.36132  1
 Cl  Cl5  1  0.19653  0.00185  0.82747  1
 Cl  Cl6  1  0.80347  0.50185  0.17253  1
 Ge  Ge1  1  0.92404  0.25000  0.38787  1
 Ge  Ge2  1  0.07596  0.75000  0.61213  1
 Tl  Tl1  1  0.67490  0.25000  0.79166  1
 Tl  Tl2  1  0.32510  0.75000  0.20834  1
