CIF file written using JARVIS-Tools package.
data_Li4Cr3FeO8
_symmetry_space_group_name_H-M  'R-3m'
_cell_length_a       5.80172
_cell_length_b       5.80167
_cell_length_c       5.81516
_cell_angle_alpha    90.0033
_cell_angle_beta     119.921
_cell_angle_gamma    120

_symmetry_Int_Tables_number  166
_chemical_formula_structural  Li4Cr3FeO8
_chemical_formula_sum  Li4Cr3FeO8
_cell_volume  138.567413424272
_cell_formula_units_Z  1
loop_
  _symmetry_equiv_pos_site_id
 _symmetry_equiv_pos_as_xyz
 1  'x, y, z'
loop_
 _atom_site_type_symbol
 _atom_site_label
 _atom_site_symmetry_multiplicity
 _atom_site_fract_x
 _atom_site_fract_y
 _atom_site_fract_z
 _atom_site_fract_occupancy
 Cr  Cr1  1  0.50000  0.50000  -0.00000  1
 Cr  Cr2  1  0.50000  -0.00000  0.00000  1
 Cr  Cr3  1  -0.00000  0.50000  -0.00000  1
 Fe  Fe1  1  0.00000  0.00000  0.00000  1
 Li  Li1  1  0.50000  0.50000  0.50000  1
 Li  Li2  1  0.50000  0.00000  0.50000  1
 Li  Li3  1  0.00000  0.00000  0.50000  1
 Li  Li4  1  -0.00000  0.50000  0.50000  1
 O  O1  1  0.51493  0.25746  0.77238  1
 O  O2  1  0.98553  0.74476  0.22632  1
 O  O3  1  0.51845  0.75922  0.77368  1
 O  O4  1  0.01447  0.75922  0.77368  1
 O  O5  1  0.98553  0.24078  0.22632  1
 O  O6  1  0.48155  0.24078  0.22632  1
 O  O7  1  0.01447  0.25524  0.77368  1
 O  O8  1  0.48507  0.74254  0.22762  1
