CIF file written using JARVIS-Tools package.
data_LiMnF5
_symmetry_space_group_name_H-M  'Pmmn'
_cell_length_a       3.76758
_cell_length_b       6.87711
_cell_length_c       6.72651
_cell_angle_alpha    90
_cell_angle_beta     90.0008
_cell_angle_gamma    90

_symmetry_Int_Tables_number  59
_chemical_formula_structural  LiMnF5
_chemical_formula_sum  Li2Mn2F0
_cell_volume  174.28428601182225
_cell_formula_units_Z  2
loop_
  _symmetry_equiv_pos_site_id
 _symmetry_equiv_pos_as_xyz
 1  'x, y, z'
loop_
 _atom_site_type_symbol
 _atom_site_label
 _atom_site_symmetry_multiplicity
 _atom_site_fract_x
 _atom_site_fract_y
 _atom_site_fract_z
 _atom_site_fract_occupancy
 F  F1  1  0.25870  0.00000  0.98056  1
 F  F2  1  0.25872  0.00000  0.51649  1
 F  F3  1  0.24142  0.50000  0.74852  1
 F  F4  1  0.25919  0.26189  0.24853  1
 F  F5  1  0.25919  0.73811  0.24853  1
 F  F6  1  0.74083  0.76189  0.74850  1
 F  F7  1  0.74083  0.23811  0.74850  1
 F  F8  1  0.75859  0.00000  0.24854  1
 F  F9  1  0.74129  0.50000  0.01647  1
 F  F10  1  0.74126  0.50000  0.48054  1
 Li  Li1  1  0.01842  0.50000  0.24850  1
 Li  Li2  1  0.98159  0.00000  0.74852  1
 Mn  Mn1  1  0.25676  0.00000  0.24853  1
 Mn  Mn2  1  0.74323  0.50000  0.74850  1
