CIF file written using JARVIS-Tools package.
data_Li2MnVO4
_symmetry_space_group_name_H-M  'Imma'
_cell_length_a       6.00859
_cell_length_b       6.0086
_cell_length_c       5.72737
_cell_angle_alpha    118.469
_cell_angle_beta     118.469
_cell_angle_gamma    94.6699

_symmetry_Int_Tables_number  74
_chemical_formula_structural  Li2MnVO4
_chemical_formula_sum  Li4Mn2V2O8
_cell_volume  146.49314525799295
_cell_formula_units_Z  2
loop_
  _symmetry_equiv_pos_site_id
 _symmetry_equiv_pos_as_xyz
 1  'x, y, z'
loop_
 _atom_site_type_symbol
 _atom_site_label
 _atom_site_symmetry_multiplicity
 _atom_site_fract_x
 _atom_site_fract_y
 _atom_site_fract_z
 _atom_site_fract_occupancy
 Li  Li1  1  -0.00000  0.50000  0.50000  1
 Li  Li2  1  0.50000  0.50000  0.50000  1
 Li  Li3  1  0.50000  0.00000  0.00000  1
 Li  Li4  1  0.50000  0.50000  0.00000  1
 Mn  Mn1  1  -0.00000  0.50000  0.00000  1
 Mn  Mn2  1  0.50000  -0.00000  0.50000  1
 O  O1  1  0.23014  0.76987  0.01440  1
 O  O2  1  0.23803  0.24414  0.49115  1
 O  O3  1  0.23013  0.76986  0.48560  1
 O  O4  1  0.75586  0.76197  0.00885  1
 O  O5  1  0.24414  0.23803  -0.00885  1
 O  O6  1  0.76987  0.23014  0.51440  1
 O  O7  1  0.76197  0.75586  0.50885  1
 O  O8  1  0.76986  0.23013  0.98560  1
 V  V1  1  -0.00000  -0.00000  0.50000  1
 V  V2  1  0.00000  0.00000  0.00000  1
