data_image0
_chemical_formula_structural       Ir3P3Sc3
_chemical_formula_sum              "Ir3 P3 Sc3"
_cell_length_a       6.36595
_cell_length_b       6.36595
_cell_length_c       3.92239
_cell_angle_alpha    90
_cell_angle_beta     90
_cell_angle_gamma    120

_space_group_name_H-M_alt    "P 1"
_space_group_IT_number       1

loop_
  _space_group_symop_operation_xyz
  'x, y, z'

loop_
  _atom_site_type_symbol
  _atom_site_label
  _atom_site_symmetry_multiplicity
  _atom_site_fract_x
  _atom_site_fract_y
  _atom_site_fract_z
  _atom_site_occupancy
  Ir  Ir1       1.0  0.25000  0.00000  0.00000  1.0000
  Ir  Ir2       1.0  0.00000  0.25000  0.00000  1.0000
  Ir  Ir3       1.0  0.75000  0.75000  0.00000  1.0000
  P   P1        1.0  0.66700  0.33300  0.00000  1.0000
  P   P2        1.0  0.33300  0.66700  0.00000  1.0000
  P   P3        1.0  0.00000  0.00000  0.50000  1.0000
  Sc  Sc1       1.0  0.58000  0.00000  0.50000  1.0000
  Sc  Sc2       1.0  0.42000  0.42000  0.50000  1.0000
  Sc  Sc3       1.0  1.00000  0.58000  0.50000  1.0000
