CIF file written using JARVIS-Tools package.
data_Na3VPCO7
_symmetry_space_group_name_H-M  'P2_1/m'
_cell_length_a       5.33059
_cell_length_b       6.65899
_cell_length_c       8.80414
_cell_angle_alpha    90
_cell_angle_beta     91.1866
_cell_angle_gamma    90

_symmetry_Int_Tables_number  11
_chemical_formula_structural  Na3VPCO7
_chemical_formula_sum  Na6V2P2C2O4
_cell_volume  312.4484633322137
_cell_formula_units_Z  2
loop_
  _symmetry_equiv_pos_site_id
 _symmetry_equiv_pos_as_xyz
 1  'x, y, z'
loop_
 _atom_site_type_symbol
 _atom_site_label
 _atom_site_symmetry_multiplicity
 _atom_site_fract_x
 _atom_site_fract_y
 _atom_site_fract_z
 _atom_site_fract_occupancy
 C  C1  1  0.50184  0.73653  0.83415  1
 C  C2  1  0.49816  0.23653  0.16585  1
 Na  Na1  1  0.00006  0.48644  0.99997  1
 Na  Na2  1  0.44487  0.23637  0.84116  1
 Na  Na3  1  0.50014  0.48667  0.50003  1
 Na  Na4  1  0.49986  0.98667  0.49997  1
 Na  Na5  1  0.55513  0.73637  0.15884  1
 Na  Na6  1  -0.00006  0.98644  0.00003  1
 O  O1  1  0.26712  0.23644  0.11633  1
 O  O2  1  0.73288  0.73644  0.88367  1
 O  O3  1  0.08650  0.05183  0.74939  1
 O  O4  1  0.08673  0.42116  0.74933  1
 O  O5  1  0.44530  0.73665  0.69164  1
 O  O6  1  0.31511  0.73650  0.93010  1
 O  O7  1  0.11195  0.23642  0.49728  1
 O  O8  1  0.88805  0.73642  0.50272  1
 O  O9  1  0.91350  0.55183  0.25061  1
 O  O10  1  0.55470  0.23665  0.30836  1
 O  O11  1  0.91327  0.92116  0.25067  1
 O  O12  1  0.70000  0.23660  0.64371  1
 O  O13  1  0.30000  0.73660  0.35629  1
 O  O14  1  0.68489  0.23650  0.06990  1
 P  P1  1  0.98790  0.23651  0.65488  1
 P  P2  1  0.01210  0.73651  0.34512  1
 V  V1  1  0.94754  0.23650  0.27794  1
 V  V2  1  0.05246  0.73650  0.72206  1
