CIF file written using JARVIS-Tools package.
data_Mn3OF5
_symmetry_space_group_name_H-M  'Amm2'
_cell_length_a       4.81816
_cell_length_b       4.81816
_cell_length_c       9.68641
_cell_angle_alpha    90
_cell_angle_beta     90
_cell_angle_gamma    87.411

_symmetry_Int_Tables_number  38
_chemical_formula_structural  Mn3OF5
_chemical_formula_sum  Mn6O2F0
_cell_volume  224.63703976017567
_cell_formula_units_Z  2
loop_
  _symmetry_equiv_pos_site_id
 _symmetry_equiv_pos_as_xyz
 1  'x, y, z'
loop_
 _atom_site_type_symbol
 _atom_site_label
 _atom_site_symmetry_multiplicity
 _atom_site_fract_x
 _atom_site_fract_y
 _atom_site_fract_z
 _atom_site_fract_occupancy
 F  F1  1  0.79136  0.20864  0.17848  1
 F  F2  1  0.79136  0.20864  0.48819  1
 F  F3  1  0.30589  0.30135  0.00162  1
 F  F4  1  0.29484  0.31286  0.33333  1
 F  F5  1  0.20413  0.79587  0.83333  1
 F  F6  1  0.69865  0.69411  0.00162  1
 F  F7  1  0.68714  0.70516  0.33333  1
 F  F8  1  0.69865  0.69411  0.66505  1
 F  F9  1  0.82411  0.17589  0.83333  1
 F  F10  1  0.30589  0.30135  0.66505  1
 Mn  Mn1  1  0.47896  0.52104  0.49692  1
 Mn  Mn2  1  0.47896  0.52104  0.16975  1
 Mn  Mn3  1  0.51429  0.48571  0.83333  1
 Mn  Mn4  1  0.01572  0.98428  0.65518  1
 Mn  Mn5  1  0.01625  0.98375  0.33333  1
 Mn  Mn6  1  0.01572  0.98428  0.01149  1
 O  O1  1  0.18904  0.81096  0.49105  1
 O  O2  1  0.18904  0.81096  0.17562  1
