CIF file written using JARVIS-Tools package.
data_LiVOF3
_symmetry_space_group_name_H-M  'P4_1'
_cell_length_a       5.99599
_cell_length_b       5.99599
_cell_length_c       8.12429
_cell_angle_alpha    90
_cell_angle_beta     90
_cell_angle_gamma    90

_symmetry_Int_Tables_number  76
_chemical_formula_structural  LiVOF3
_chemical_formula_sum  Li4V4O4F2
_cell_volume  292.0833233250825
_cell_formula_units_Z  4
loop_
  _symmetry_equiv_pos_site_id
 _symmetry_equiv_pos_as_xyz
 1  'x, y, z'
loop_
 _atom_site_type_symbol
 _atom_site_label
 _atom_site_symmetry_multiplicity
 _atom_site_fract_x
 _atom_site_fract_y
 _atom_site_fract_z
 _atom_site_fract_occupancy
 F  F1  1  0.98411  0.77880  0.25955  1
 F  F2  1  0.77880  0.01589  0.00955  1
 F  F3  1  0.53704  0.78789  0.21064  1
 F  F4  1  0.50927  0.22096  0.27104  1
 F  F5  1  0.49073  0.77904  0.77104  1
 F  F6  1  0.46296  0.21211  0.71064  1
 F  F7  1  0.22120  0.98411  0.50955  1
 F  F8  1  0.22096  0.49073  0.02104  1
 F  F9  1  0.21211  0.53704  0.46064  1
 F  F10  1  0.01589  0.22120  0.75955  1
 F  F11  1  0.78789  0.46296  0.96064  1
 F  F12  1  0.77904  0.50927  0.52104  1
 Li  Li1  1  0.24574  0.25391  0.38588  1
 Li  Li2  1  0.75426  0.74609  0.88588  1
 Li  Li3  1  0.74609  0.24574  0.63588  1
 Li  Li4  1  0.25391  0.75426  0.13588  1
 O  O1  1  0.96933  0.22386  0.22629  1
 O  O2  1  0.77614  0.96933  0.47629  1
 O  O3  1  0.03067  0.77614  0.72629  1
 O  O4  1  0.22386  0.03067  0.97629  1
 V  V1  1  0.98585  0.73555  0.51665  1
 V  V2  1  0.73555  0.01415  0.26665  1
 V  V3  1  0.26445  0.98585  0.76665  1
 V  V4  1  0.01415  0.26445  0.01665  1
