CIF file written using JARVIS-Tools package.
data_Li2VO2F
_symmetry_space_group_name_H-M  'Fdd2'
_cell_length_a       5.08754
_cell_length_b       5.08754
_cell_length_c       9.25876
_cell_angle_alpha    79.3938
_cell_angle_beta     100.606
_cell_angle_gamma    70.7289

_symmetry_Int_Tables_number  43
_chemical_formula_structural  Li2VO2F
_chemical_formula_sum  Li8V4O8F4
_cell_volume  214.47268160941235
_cell_formula_units_Z  4
loop_
  _symmetry_equiv_pos_site_id
 _symmetry_equiv_pos_as_xyz
 1  'x, y, z'
loop_
 _atom_site_type_symbol
 _atom_site_label
 _atom_site_symmetry_multiplicity
 _atom_site_fract_x
 _atom_site_fract_y
 _atom_site_fract_z
 _atom_site_fract_occupancy
 F  F1  1  0.20696  0.04243  0.42199  1
 F  F2  1  0.46447  0.28493  0.92201  1
 F  F3  1  0.71507  0.53553  0.42201  1
 F  F4  1  0.95757  0.79304  0.92199  1
 Li  Li1  1  0.86924  0.38072  0.23846  1
 Li  Li2  1  0.61928  0.13076  0.73846  1
 Li  Li3  1  0.11054  0.63951  0.72111  1
 Li  Li4  1  0.80380  0.94597  0.10785  1
 Li  Li5  1  0.36049  0.88946  0.22111  1
 Li  Li6  1  0.05403  0.19620  0.60785  1
 Li  Li7  1  0.20596  0.04405  0.91192  1
 Li  Li8  1  0.95595  0.79404  0.41192  1
 O  O1  1  0.61196  0.12945  0.25224  1
 O  O2  1  0.53461  0.68866  0.07577  1
 O  O3  1  0.04118  0.23561  0.07576  1
 O  O4  1  0.87055  0.38804  0.75224  1
 O  O5  1  0.14025  0.61832  0.25223  1
 O  O6  1  0.76439  0.95882  0.57576  1
 O  O7  1  0.38168  0.85975  0.75223  1
 O  O8  1  0.31134  0.46539  0.57577  1
 V  V1  1  0.70800  0.54200  0.91598  1
 V  V2  1  0.30235  0.44767  0.10469  1
 V  V3  1  0.45800  0.29200  0.41598  1
 V  V4  1  0.55233  0.69765  0.60469  1
