CIF file written using JARVIS-Tools package.
data_Li2Cr3O6
_symmetry_space_group_name_H-M  'Cmce'
_cell_length_a       5.03657
_cell_length_b       4.97601
_cell_length_c       9.94204
_cell_angle_alpha    90
_cell_angle_beta     90
_cell_angle_gamma    60.3969

_symmetry_Int_Tables_number  64
_chemical_formula_structural  Li2Cr3O6
_chemical_formula_sum  Li4Cr6O2
_cell_volume  216.643159611936
_cell_formula_units_Z  2
loop_
  _symmetry_equiv_pos_site_id
 _symmetry_equiv_pos_as_xyz
 1  'x, y, z'
loop_
 _atom_site_type_symbol
 _atom_site_label
 _atom_site_symmetry_multiplicity
 _atom_site_fract_x
 _atom_site_fract_y
 _atom_site_fract_z
 _atom_site_fract_occupancy
 Cr  Cr1  1  0.00000  0.00000  0.00000  1
 Cr  Cr2  1  0.00000  0.50000  0.50000  1
 Cr  Cr3  1  0.32387  0.33807  0.00000  1
 Cr  Cr4  1  0.32387  0.83807  0.50000  1
 Cr  Cr5  1  0.67613  0.16193  0.50000  1
 Cr  Cr6  1  0.67613  0.66193  0.00000  1
 Li  Li1  1  0.50000  0.14703  0.75000  1
 Li  Li2  1  0.50000  0.35297  0.25000  1
 Li  Li3  1  0.50000  0.64703  0.75000  1
 Li  Li4  1  0.50000  0.85297  0.25000  1
 O  O1  1  0.66088  0.50887  0.39329  1
 O  O2  1  -0.00000  0.32832  0.10167  1
 O  O3  1  0.00000  0.67168  0.89833  1
 O  O4  1  0.33912  0.99113  0.89329  1
 O  O5  1  0.00000  0.17168  0.60167  1
 O  O6  1  0.66088  0.33025  0.89329  1
 O  O7  1  0.33912  0.49113  0.60671  1
 O  O8  1  0.33912  0.66975  0.10671  1
 O  O9  1  0.66088  0.00887  0.10671  1
 O  O10  1  -0.00000  0.82832  0.39833  1
 O  O11  1  0.33912  0.16975  0.39329  1
 O  O12  1  0.66088  0.83025  0.60671  1
