CIF file written using JARVIS-Tools package.
data_B2C3N6
_symmetry_space_group_name_H-M  'C2/c'
_cell_length_a       8.62436
_cell_length_b       8.62436
_cell_length_c       7.06343
_cell_angle_alpha    48.6073
_cell_angle_beta     48.6073
_cell_angle_gamma    52.9243

_symmetry_Int_Tables_number  15
_chemical_formula_structural  B2C3N6
_chemical_formula_sum  B4C6N2
_cell_volume  282.5772067143932
_cell_formula_units_Z  2
loop_
  _symmetry_equiv_pos_site_id
 _symmetry_equiv_pos_as_xyz
 1  'x, y, z'
loop_
 _atom_site_type_symbol
 _atom_site_label
 _atom_site_symmetry_multiplicity
 _atom_site_fract_x
 _atom_site_fract_y
 _atom_site_fract_z
 _atom_site_fract_occupancy
 B  B1  1  0.41969  0.34652  0.82004  1
 B  B2  1  0.15351  0.08031  0.67991  1
 B  B3  1  0.58031  0.65351  0.17991  1
 B  B4  1  0.84652  0.91969  0.32004  1
 C  C1  1  0.79156  0.70846  0.24996  1
 C  C2  1  0.20846  0.29156  0.74996  1
 C  C3  1  0.81147  0.16338  0.68950  1
 C  C4  1  0.33664  0.68854  0.81045  1
 C  C5  1  0.66338  0.31147  0.18950  1
 C  C6  1  0.18854  0.83664  0.31045  1
 N  N1  1  0.30747  0.87167  0.74813  1
 N  N2  1  0.69257  0.12834  0.25179  1
 N  N3  1  0.62834  0.19257  0.75179  1
 N  N4  1  0.24964  0.35561  0.81808  1
 N  N5  1  0.99862  0.11751  0.62335  1
 N  N6  1  0.75036  0.64445  0.18185  1
 N  N7  1  0.00138  0.88249  0.37664  1
 N  N8  1  0.85561  0.74964  0.31808  1
 N  N9  1  0.37167  0.80747  0.24813  1
 N  N10  1  0.14445  0.25036  0.68185  1
 N  N11  1  0.61751  0.49862  0.12335  1
 N  N12  1  0.38249  0.50138  0.87664  1
