CIF file written using JARVIS-Tools package.
data_Mn2O3
_symmetry_space_group_name_H-M  'R-3c'
_cell_length_a       4.96389
_cell_length_b       5.37965
_cell_length_c       4.9639
_cell_angle_alpha    117.475
_cell_angle_beta     60
_cell_angle_gamma    117.475

_symmetry_Int_Tables_number  167
_chemical_formula_structural  Mn2O3
_chemical_formula_sum  Mn4O6
_cell_volume  97.15090341724493
_cell_formula_units_Z  2
loop_
  _symmetry_equiv_pos_site_id
 _symmetry_equiv_pos_as_xyz
 1  'x, y, z'
loop_
 _atom_site_type_symbol
 _atom_site_label
 _atom_site_symmetry_multiplicity
 _atom_site_fract_x
 _atom_site_fract_y
 _atom_site_fract_z
 _atom_site_fract_occupancy
 Mn  Mn1  1  0.15326  0.45979  0.15326  1
 Mn  Mn2  1  0.65326  0.95979  0.65326  1
 Mn  Mn3  1  0.34674  0.04021  0.34674  1
 Mn  Mn4  1  0.84674  0.54021  0.84674  1
 O  O1  1  0.25000  0.75000  0.56004  1
 O  O2  1  0.06004  0.25000  0.75000  1
 O  O3  1  0.43996  0.25000  0.06004  1
 O  O4  1  0.56004  0.75000  0.93996  1
 O  O5  1  0.93996  0.75000  0.25000  1
 O  O6  1  0.75000  0.25000  0.43996  1
