CIF file written using JARVIS-Tools package.
data_LiMn5Cu2O12
_symmetry_space_group_name_H-M  'C2'
_cell_length_a       5.00491
_cell_length_b       5.00491
_cell_length_c       9.05122
_cell_angle_alpha    86.2867
_cell_angle_beta     93.7132
_cell_angle_gamma    65.3125

_symmetry_Int_Tables_number  5
_chemical_formula_structural  LiMn5Cu2O12
_chemical_formula_sum  LiMn5Cu2O2
_cell_volume  204.51353316451426
_cell_formula_units_Z  1
loop_
  _symmetry_equiv_pos_site_id
 _symmetry_equiv_pos_as_xyz
 1  'x, y, z'
loop_
 _atom_site_type_symbol
 _atom_site_label
 _atom_site_symmetry_multiplicity
 _atom_site_fract_x
 _atom_site_fract_y
 _atom_site_fract_z
 _atom_site_fract_occupancy
 Cu  Cu1  1  0.24425  0.24425  0.75000  1
 Cu  Cu2  1  0.75347  0.75347  0.25000  1
 Li  Li1  1  0.92036  0.92036  0.75000  1
 Mn  Mn1  1  0.08540  0.08540  0.25000  1
 Mn  Mn2  1  0.42344  0.42344  0.25000  1
 Mn  Mn3  1  0.57576  0.57576  0.75000  1
 Mn  Mn4  1  0.51222  -0.00315  0.51064  1
 Mn  Mn5  1  -0.00315  0.51222  0.98936  1
 O  O1  1  0.18922  0.31693  0.37779  1
 O  O2  1  0.91690  0.26928  0.86122  1
 O  O3  1  0.31693  0.18922  0.12221  1
 O  O4  1  0.26183  0.55303  0.86370  1
 O  O5  1  0.08316  0.74693  0.14405  1
 O  O6  1  0.76167  0.42028  0.14475  1
 O  O7  1  0.42028  0.76167  0.35525  1
 O  O8  1  0.74693  0.08316  0.35595  1
 O  O9  1  0.26928  0.91690  0.63878  1
 O  O10  1  0.66603  0.79968  0.88521  1
 O  O11  1  0.55303  0.26183  0.63630  1
 O  O12  1  0.79968  0.66603  0.61479  1
