CIF file written using JARVIS-Tools package.
data_V3O4F2
_symmetry_space_group_name_H-M  'P1'
_cell_length_a       5.00067
_cell_length_b       5.03351
_cell_length_c       5.44615
_cell_angle_alpha    92.4489
_cell_angle_beta     116.251
_cell_angle_gamma    118.884

_symmetry_Int_Tables_number  1
_chemical_formula_structural  V3O4F2
_chemical_formula_sum  V3O4F2
_cell_volume  101.75307422943105
_cell_formula_units_Z  1
loop_
  _symmetry_equiv_pos_site_id
 _symmetry_equiv_pos_as_xyz
 1  'x, y, z'
loop_
 _atom_site_type_symbol
 _atom_site_label
 _atom_site_symmetry_multiplicity
 _atom_site_fract_x
 _atom_site_fract_y
 _atom_site_fract_z
 _atom_site_fract_occupancy
 F  F1  1  0.77983  0.07605  0.25509  1
 F  F2  1  0.18266  0.71927  0.25404  1
 O  O1  1  0.84432  0.23995  0.78356  1
 O  O2  1  0.51767  0.57929  0.76297  1
 O  O3  1  0.18634  0.92383  0.78859  1
 O  O4  1  0.55336  0.50406  0.24471  1
 V  V1  1  0.28684  0.62462  0.94068  1
 V  V2  1  0.70931  0.83270  0.56625  1
 V  V3  1  0.64246  0.32777  -0.00011  1
