CIF file written using JARVIS-Tools package.
data_Ba4ZrO6
_symmetry_space_group_name_H-M  'R-3c'
_cell_length_a       7.44369
_cell_length_b       7.44369
_cell_length_c       7.44369
_cell_angle_alpha    89.4319
_cell_angle_beta     89.4319
_cell_angle_gamma    89.4319

_symmetry_Int_Tables_number  167
_chemical_formula_structural  Ba4ZrO6
_chemical_formula_sum  Ba8Zr2O2
_cell_volume  412.3843638776548
_cell_formula_units_Z  2
loop_
  _symmetry_equiv_pos_site_id
 _symmetry_equiv_pos_as_xyz
 1  'x, y, z'
loop_
 _atom_site_type_symbol
 _atom_site_label
 _atom_site_symmetry_multiplicity
 _atom_site_fract_x
 _atom_site_fract_y
 _atom_site_fract_z
 _atom_site_fract_occupancy
 Ba  Ba1  1  0.11125  0.75000  0.38875  1
 Ba  Ba2  1  0.25000  0.61125  0.88875  1
 Ba  Ba3  1  0.61125  0.88875  0.25000  1
 Ba  Ba4  1  0.25000  0.25000  0.25000  1
 Ba  Ba5  1  0.75000  0.75000  0.75000  1
 Ba  Ba6  1  0.38875  0.11125  0.75000  1
 Ba  Ba7  1  0.75000  0.38875  0.11125  1
 Ba  Ba8  1  0.88875  0.25000  0.61125  1
 O  O1  1  0.72645  0.05823  0.92613  1
 O  O2  1  0.27355  0.94177  0.07387  1
 O  O3  1  0.44177  0.77355  0.57387  1
 O  O4  1  0.07387  0.27355  0.94177  1
 O  O5  1  0.05823  0.92613  0.72645  1
 O  O6  1  0.42613  0.55823  0.22645  1
 O  O7  1  0.55823  0.22645  0.42613  1
 O  O8  1  0.77355  0.57387  0.44177  1
 O  O9  1  0.92613  0.72645  0.05823  1
 O  O10  1  0.22645  0.42613  0.55823  1
 O  O11  1  0.57387  0.44177  0.77355  1
 O  O12  1  0.94177  0.07387  0.27355  1
 Zr  Zr1  1  0.00000  0.00000  0.00000  1
 Zr  Zr2  1  0.50000  0.50000  0.50000  1
