CIF file written using JARVIS-Tools package.
data_LiVSiO4
_symmetry_space_group_name_H-M  'Pnma'
_cell_length_a       4.80843
_cell_length_b       5.50453
_cell_length_c       9.38268
_cell_angle_alpha    90
_cell_angle_beta     90
_cell_angle_gamma    90

_symmetry_Int_Tables_number  62
_chemical_formula_structural  LiVSiO4
_chemical_formula_sum  Li4V4Si4O6
_cell_volume  248.34183462664672
_cell_formula_units_Z  4
loop_
  _symmetry_equiv_pos_site_id
 _symmetry_equiv_pos_as_xyz
 1  'x, y, z'
loop_
 _atom_site_type_symbol
 _atom_site_label
 _atom_site_symmetry_multiplicity
 _atom_site_fract_x
 _atom_site_fract_y
 _atom_site_fract_z
 _atom_site_fract_occupancy
 Li  Li1  1  0.94317  0.75000  0.61288  1
 Li  Li2  1  0.55683  0.75000  0.11288  1
 Li  Li3  1  0.44317  0.25000  0.88712  1
 Li  Li4  1  0.05683  0.25000  0.38712  1
 O  O1  1  0.72658  0.75000  0.43403  1
 O  O2  1  0.30203  0.99603  0.33754  1
 O  O3  1  0.69797  0.49603  0.66246  1
 O  O4  1  0.80983  0.25000  0.92602  1
 O  O5  1  0.69017  0.25000  0.42602  1
 O  O6  1  0.80203  0.00397  0.16246  1
 O  O7  1  0.69797  0.00397  0.66246  1
 O  O8  1  0.77342  0.75000  0.93403  1
 O  O9  1  0.22658  0.25000  0.06597  1
 O  O10  1  0.19797  0.50397  0.83754  1
 O  O11  1  0.19797  0.99603  0.83754  1
 O  O12  1  0.19017  0.75000  0.07398  1
 O  O13  1  0.80203  0.49603  0.16246  1
 O  O14  1  0.30203  0.50397  0.33754  1
 O  O15  1  0.30983  0.75000  0.57398  1
 O  O16  1  0.27342  0.25000  0.56597  1
 Si  Si1  1  0.00000  0.00000  0.00000  1
 Si  Si2  1  0.00000  0.50000  0.00000  1
 Si  Si3  1  0.50000  0.50000  0.50000  1
 Si  Si4  1  0.50000  0.00000  0.50000  1
 V  V1  1  0.01976  0.75000  0.27605  1
 V  V2  1  0.48024  0.75000  0.77605  1
 V  V3  1  0.51976  0.25000  0.22395  1
 V  V4  1  0.98024  0.25000  0.72395  1
