CIF file written using JARVIS-Tools package.
data_BaReN3
_symmetry_space_group_name_H-M  'C2/c'
_cell_length_a       6.18378
_cell_length_b       7.97279
_cell_length_c       7.97279
_cell_angle_alpha    90.7335
_cell_angle_beta     98.6302
_cell_angle_gamma    98.6302

_symmetry_Int_Tables_number  15
_chemical_formula_structural  BaReN3
_chemical_formula_sum  Ba4Re4N2
_cell_volume  383.9723557371416
_cell_formula_units_Z  4
loop_
  _symmetry_equiv_pos_site_id
 _symmetry_equiv_pos_as_xyz
 1  'x, y, z'
loop_
 _atom_site_type_symbol
 _atom_site_label
 _atom_site_symmetry_multiplicity
 _atom_site_fract_x
 _atom_site_fract_y
 _atom_site_fract_z
 _atom_site_fract_occupancy
 Ba  Ba1  1  0.75000  0.32814  0.67186  1
 Ba  Ba2  1  0.25000  0.09892  0.90108  1
 Ba  Ba3  1  0.25000  0.67186  0.32814  1
 Ba  Ba4  1  0.75000  0.90108  0.09892  1
 N  N1  1  0.32061  0.76494  0.98167  1
 N  N2  1  0.98373  0.31785  0.35978  1
 N  N3  1  0.48373  0.35978  0.31785  1
 N  N4  1  0.82061  0.98167  0.76494  1
 N  N5  1  0.51627  0.64022  0.68215  1
 N  N6  1  0.67939  0.23506  0.01833  1
 N  N7  1  0.32054  0.14410  0.57871  1
 N  N8  1  0.82054  0.57871  0.14410  1
 N  N9  1  0.67946  0.85590  0.42129  1
 N  N10  1  0.01627  0.68215  0.64022  1
 N  N11  1  0.17946  0.42129  0.85590  1
 N  N12  1  0.17939  0.01833  0.23506  1
 Re  Re1  1  0.76136  0.79633  0.62978  1
 Re  Re2  1  0.73864  0.37022  0.20367  1
 Re  Re3  1  0.26136  0.62978  0.79633  1
 Re  Re4  1  0.23864  0.20367  0.37022  1
