CIF file written using JARVIS-Tools package.
data_MgTlF3
_symmetry_space_group_name_H-M  'Pm-3m'
_cell_length_a       4.10286
_cell_length_b       4.10278
_cell_length_c       4.103
_cell_angle_alpha    90.0039
_cell_angle_beta     90.0022
_cell_angle_gamma    90.0005

_symmetry_Int_Tables_number  221
_chemical_formula_structural  MgTlF3
_chemical_formula_sum  MgTlF3
_cell_volume  69.06643183368988
_cell_formula_units_Z  1
loop_
  _symmetry_equiv_pos_site_id
 _symmetry_equiv_pos_as_xyz
 1  'x, y, z'
loop_
 _atom_site_type_symbol
 _atom_site_label
 _atom_site_symmetry_multiplicity
 _atom_site_fract_x
 _atom_site_fract_y
 _atom_site_fract_z
 _atom_site_fract_occupancy
 F  F1  1  0.00000  0.51199  0.50201  1
 F  F2  1  0.50000  0.01199  0.50201  1
 F  F3  1  0.50000  0.51199  0.00201  1
 Mg  Mg1  1  0.50000  0.51200  0.50200  1
 Tl  Tl1  1  -0.00000  0.01203  0.00197  1
