CIF file written using JARVIS-Tools package.
data_CrOF
_symmetry_space_group_name_H-M  'Pnma'
_cell_length_a       3.01344
_cell_length_b       4.75006
_cell_length_c       9.57626
_cell_angle_alpha    90
_cell_angle_beta     90
_cell_angle_gamma    90

_symmetry_Int_Tables_number  62
_chemical_formula_structural  CrOF
_chemical_formula_sum  Cr4O4F4
_cell_volume  137.07462527160402
_cell_formula_units_Z  4
loop_
  _symmetry_equiv_pos_site_id
 _symmetry_equiv_pos_as_xyz
 1  'x, y, z'
loop_
 _atom_site_type_symbol
 _atom_site_label
 _atom_site_symmetry_multiplicity
 _atom_site_fract_x
 _atom_site_fract_y
 _atom_site_fract_z
 _atom_site_fract_occupancy
 Cr  Cr1  1  0.25000  0.16241  0.38015  1
 Cr  Cr2  1  0.75000  0.33759  0.61985  1
 Cr  Cr3  1  0.75000  0.66241  0.11985  1
 Cr  Cr4  1  0.25000  0.83759  0.88015  1
 F  F1  1  0.74998  0.33175  0.25713  1
 F  F2  1  0.24998  0.16825  0.74287  1
 F  F3  1  0.25002  0.83175  0.24287  1
 F  F4  1  0.75002  0.66825  0.75713  1
 O  O1  1  0.75001  0.03463  0.48646  1
 O  O2  1  0.25001  0.46537  0.51354  1
 O  O3  1  0.24999  0.53463  0.01354  1
 O  O4  1  0.74999  0.96537  0.98646  1
