CIF file written using JARVIS-Tools package.
data_Li2VOF3
_symmetry_space_group_name_H-M  'Pnc2'
_cell_length_a       4.91887
_cell_length_b       11.4233
_cell_length_c       5.03312
_cell_angle_alpha    90
_cell_angle_beta     90.0004
_cell_angle_gamma    90

_symmetry_Int_Tables_number  30
_chemical_formula_structural  Li2VOF3
_chemical_formula_sum  Li8V4O4F2
_cell_volume  282.80989754404817
_cell_formula_units_Z  4
loop_
  _symmetry_equiv_pos_site_id
 _symmetry_equiv_pos_as_xyz
 1  'x, y, z'
loop_
 _atom_site_type_symbol
 _atom_site_label
 _atom_site_symmetry_multiplicity
 _atom_site_fract_x
 _atom_site_fract_y
 _atom_site_fract_z
 _atom_site_fract_occupancy
 F  F1  1  0.76845  0.06253  0.66530  1
 F  F2  1  0.77515  0.80385  0.67364  1
 F  F3  1  0.72485  0.30385  0.67365  1
 F  F4  1  0.71969  0.68855  0.18174  1
 F  F5  1  0.73155  0.56253  0.66530  1
 F  F6  1  0.26845  0.56253  0.33470  1
 F  F7  1  0.27515  0.30385  0.32635  1
 F  F8  1  0.28031  0.68855  0.81826  1
 F  F9  1  0.21969  0.18855  0.81826  1
 F  F10  1  0.22485  0.80385  0.32636  1
 F  F11  1  0.23155  0.06253  0.33470  1
 F  F12  1  0.78031  0.18855  0.18174  1
 Li  Li1  1  0.00000  0.78922  0.00000  1
 Li  Li2  1  0.50000  0.86291  0.00000  1
 Li  Li3  1  0.50000  0.15402  0.50000  1
 Li  Li4  1  0.50000  0.28921  0.00000  1
 Li  Li5  1  0.50000  0.72273  0.50000  1
 Li  Li6  1  -0.00000  0.22273  0.50000  1
 Li  Li7  1  0.00000  0.36292  0.00000  1
 Li  Li8  1  -0.00000  0.65401  0.50000  1
 O  O1  1  0.29228  0.43838  0.82219  1
 O  O2  1  0.20772  0.93838  0.82218  1
 O  O3  1  0.79228  0.93838  0.17782  1
 O  O4  1  0.70772  0.43838  0.17781  1
 V  V1  1  0.50000  0.55297  0.00000  1
 V  V2  1  0.50000  0.43152  0.50000  1
 V  V3  1  0.00000  0.05297  0.00000  1
 V  V4  1  -0.00000  0.93152  0.50000  1
