CIF file written using JARVIS-Tools package.
data_DyBi3O6
_symmetry_space_group_name_H-M  'R-3'
_cell_length_a       6.99473
_cell_length_b       6.99472
_cell_length_c       6.99472
_cell_angle_alpha    93.1689
_cell_angle_beta     93.1689
_cell_angle_gamma    93.1688

_symmetry_Int_Tables_number  148
_chemical_formula_structural  DyBi3O6
_chemical_formula_sum  Dy2Bi6O2
_cell_volume  340.5949641900025
_cell_formula_units_Z  2
loop_
  _symmetry_equiv_pos_site_id
 _symmetry_equiv_pos_as_xyz
 1  'x, y, z'
loop_
 _atom_site_type_symbol
 _atom_site_label
 _atom_site_symmetry_multiplicity
 _atom_site_fract_x
 _atom_site_fract_y
 _atom_site_fract_z
 _atom_site_fract_occupancy
 Bi  Bi1  1  0.06973  0.55529  0.25183  1
 Bi  Bi2  1  0.25183  0.06973  0.55529  1
 Bi  Bi3  1  0.44471  0.74817  0.93027  1
 Bi  Bi4  1  0.55529  0.25183  0.06973  1
 Bi  Bi5  1  0.74817  0.93027  0.44471  1
 Bi  Bi6  1  0.93027  0.44471  0.74817  1
 Dy  Dy1  1  0.00000  0.00000  0.00000  1
 Dy  Dy2  1  0.50000  0.50000  0.50000  1
 O  O1  1  0.06944  0.69116  0.92665  1
 O  O2  1  0.92665  0.06944  0.69116  1
 O  O3  1  0.18856  0.40052  0.52756  1
 O  O4  1  0.30884  0.07335  0.93056  1
 O  O5  1  0.07335  0.93056  0.30884  1
 O  O6  1  0.69116  0.92665  0.06944  1
 O  O7  1  0.52756  0.18856  0.40052  1
 O  O8  1  0.59948  0.47244  0.81144  1
 O  O9  1  0.40052  0.52756  0.18856  1
 O  O10  1  0.81144  0.59948  0.47244  1
 O  O11  1  0.47244  0.81144  0.59948  1
 O  O12  1  0.93056  0.30884  0.07335  1
