CIF file written using JARVIS-Tools package.
data_RbSeBr3
_symmetry_space_group_name_H-M  'P2_1/m'
_cell_length_a       5.22289
_cell_length_b       8.60148
_cell_length_c       7.65545
_cell_angle_alpha    90
_cell_angle_beta     97.0946
_cell_angle_gamma    90

_symmetry_Int_Tables_number  11
_chemical_formula_structural  RbSeBr3
_chemical_formula_sum  Rb2Se2Br6
_cell_volume  341.28478053995593
_cell_formula_units_Z  2
loop_
  _symmetry_equiv_pos_site_id
 _symmetry_equiv_pos_as_xyz
 1  'x, y, z'
loop_
 _atom_site_type_symbol
 _atom_site_label
 _atom_site_symmetry_multiplicity
 _atom_site_fract_x
 _atom_site_fract_y
 _atom_site_fract_z
 _atom_site_fract_occupancy
 Br  Br1  1  0.28304  0.50708  0.30781  1
 Br  Br2  1  0.71696  0.00708  0.69219  1
 Br  Br3  1  0.28304  -0.00708  0.30781  1
 Br  Br4  1  0.71696  0.49292  0.69219  1
 Br  Br5  1  0.74720  0.75000  0.08675  1
 Br  Br6  1  0.25280  0.25000  0.91325  1
 Rb  Rb1  1  0.21425  0.75000  0.65995  1
 Rb  Rb2  1  0.78575  0.25000  0.34005  1
 Se  Se1  1  0.00000  0.50000  0.00000  1
 Se  Se2  1  0.00000  0.00000  0.00000  1
