CIF file written using JARVIS-Tools package.
data_Na3FePCO7
_symmetry_space_group_name_H-M  'P2_1'
_cell_length_a       5.27432
_cell_length_b       6.59034
_cell_length_c       8.9093
_cell_angle_alpha    90
_cell_angle_beta     90.3718
_cell_angle_gamma    90

_symmetry_Int_Tables_number  4
_chemical_formula_structural  Na3FePCO7
_chemical_formula_sum  Na6Fe2P2C2O4
_cell_volume  309.67621547609417
_cell_formula_units_Z  2
loop_
  _symmetry_equiv_pos_site_id
 _symmetry_equiv_pos_as_xyz
 1  'x, y, z'
loop_
 _atom_site_type_symbol
 _atom_site_label
 _atom_site_symmetry_multiplicity
 _atom_site_fract_x
 _atom_site_fract_y
 _atom_site_fract_z
 _atom_site_fract_occupancy
 C  C1  1  0.50237  0.26300  0.84533  1
 C  C2  1  0.49763  0.76300  0.15467  1
 Fe  Fe1  1  0.97091  0.26241  0.70344  1
 Fe  Fe2  1  0.02909  0.76241  0.29656  1
 Na  Na1  1  0.99962  0.51420  0.99899  1
 Na  Na2  1  0.56119  0.76593  0.83804  1
 Na  Na3  1  0.50078  0.51228  0.50116  1
 Na  Na4  1  0.49922  0.01228  0.49884  1
 Na  Na5  1  0.43881  0.26593  0.16196  1
 Na  Na6  1  0.00038  0.01420  0.00101  1
 O  O1  1  0.56245  0.26098  0.70536  1
 O  O2  1  0.92101  0.57575  0.74632  1
 O  O3  1  0.73559  0.76439  0.11412  1
 O  O4  1  0.26441  0.26439  0.88588  1
 O  O5  1  0.67925  0.26366  0.94800  1
 O  O6  1  0.92402  0.95054  0.74823  1
 O  O7  1  0.87837  0.76629  0.49993  1
 O  O8  1  0.07598  0.45054  0.25177  1
 O  O9  1  0.69564  0.26253  0.36262  1
 O  O10  1  0.43755  0.76098  0.29464  1
 O  O11  1  0.07899  0.07575  0.25368  1
 O  O12  1  0.30436  0.76253  0.63738  1
 O  O13  1  0.12163  0.26629  0.50007  1
 O  O14  1  0.32075  0.76366  0.05200  1
 P  P1  1  0.01595  0.76343  0.65616  1
 P  P2  1  0.98405  0.26343  0.34384  1
