CIF file written using JARVIS-Tools package.
data_TbB4
_symmetry_space_group_name_H-M  'P4/mbm'
_cell_length_a       8.50988
_cell_length_b       8.50988
_cell_length_c       4.19057
_cell_angle_alpha    90
_cell_angle_beta     90
_cell_angle_gamma    90

_symmetry_Int_Tables_number  127
_chemical_formula_structural  TbB4
_chemical_formula_sum  Tb4B6
_cell_volume  303.4729728886069
_cell_formula_units_Z  4
loop_
  _symmetry_equiv_pos_site_id
 _symmetry_equiv_pos_as_xyz
 1  'x, y, z'
loop_
 _atom_site_type_symbol
 _atom_site_label
 _atom_site_symmetry_multiplicity
 _atom_site_fract_x
 _atom_site_fract_y
 _atom_site_fract_z
 _atom_site_fract_occupancy
 B  B1  1  0.56417  0.06417  0.50000  1
 B  B2  1  0.37233  0.44376  0.00000  1
 B  B3  1  0.62767  0.55624  0.00000  1
 B  B4  1  0.55624  0.37233  0.00000  1
 B  B5  1  0.44376  0.62767  0.00000  1
 B  B6  1  0.00000  0.00000  0.30786  1
 B  B7  1  0.87233  0.05624  0.00000  1
 B  B8  1  0.50000  0.50000  0.69214  1
 B  B9  1  0.50000  0.50000  0.30786  1
 B  B10  1  0.94376  0.87233  0.00000  1
 B  B11  1  0.06417  0.43583  0.50000  1
 B  B12  1  0.93583  0.56417  0.50000  1
 B  B13  1  0.43583  0.93583  0.50000  1
 B  B14  1  0.05624  0.12767  0.00000  1
 B  B15  1  0.12767  0.94376  0.00000  1
 B  B16  1  0.00000  0.00000  0.69214  1
 Tb  Tb1  1  0.86073  0.36073  0.00000  1
 Tb  Tb2  1  0.36073  0.13927  0.00000  1
 Tb  Tb3  1  0.63927  0.86073  0.00000  1
 Tb  Tb4  1  0.13927  0.63927  0.00000  1
