CIF file written using JARVIS-Tools package.
data_LiVF3
_symmetry_space_group_name_H-M  'C2/c'
_cell_length_a       7.09541
_cell_length_b       7.09541
_cell_length_c       5.7031
_cell_angle_alpha    69.929
_cell_angle_beta     110.071
_cell_angle_gamma    116.049

_symmetry_Int_Tables_number  15
_chemical_formula_structural  LiVF3
_chemical_formula_sum  Li4V4F2
_cell_volume  235.90210231419664
_cell_formula_units_Z  4
loop_
  _symmetry_equiv_pos_site_id
 _symmetry_equiv_pos_as_xyz
 1  'x, y, z'
loop_
 _atom_site_type_symbol
 _atom_site_label
 _atom_site_symmetry_multiplicity
 _atom_site_fract_x
 _atom_site_fract_y
 _atom_site_fract_z
 _atom_site_fract_occupancy
 F  F1  1  0.66883  0.40655  0.92844  1
 F  F2  1  0.97581  0.33566  0.70913  1
 F  F3  1  0.92218  0.78146  0.61651  1
 F  F4  1  0.40655  0.66883  0.57156  1
 F  F5  1  0.33117  0.59345  0.07156  1
 F  F6  1  0.07782  0.21854  0.38349  1
 F  F7  1  0.33566  0.97581  0.79087  1
 F  F8  1  0.66434  0.02419  0.20913  1
 F  F9  1  0.78146  0.92218  0.88349  1
 F  F10  1  0.02419  0.66434  0.29087  1
 F  F11  1  0.59345  0.33117  0.42844  1
 F  F12  1  0.21854  0.07782  0.11651  1
 Li  Li1  1  0.93319  0.93319  0.25000  1
 Li  Li2  1  0.68189  0.68189  0.75000  1
 Li  Li3  1  0.31811  0.31811  0.25000  1
 Li  Li4  1  0.06681  0.06681  0.75000  1
 V  V1  1  0.83755  0.33723  0.30243  1
 V  V2  1  0.66277  0.16245  0.80243  1
 V  V3  1  0.33723  0.83755  0.19757  1
 V  V4  1  0.16245  0.66277  0.69757  1
