CIF file written using JARVIS-Tools package.
data_Rb2Te
_symmetry_space_group_name_H-M  'Pnma'
_cell_length_a       6.0685
_cell_length_b       7.82703
_cell_length_c       10.5132
_cell_angle_alpha    90
_cell_angle_beta     90
_cell_angle_gamma    90

_symmetry_Int_Tables_number  62
_chemical_formula_structural  Rb2Te
_chemical_formula_sum  Rb8Te4
_cell_volume  499.3578413724467
_cell_formula_units_Z  4
loop_
  _symmetry_equiv_pos_site_id
 _symmetry_equiv_pos_as_xyz
 1  'x, y, z'
loop_
 _atom_site_type_symbol
 _atom_site_label
 _atom_site_symmetry_multiplicity
 _atom_site_fract_x
 _atom_site_fract_y
 _atom_site_fract_z
 _atom_site_fract_occupancy
 Rb  Rb1  1  0.25000  0.99969  0.24871  1
 Rb  Rb2  1  0.75000  0.00031  0.75129  1
 Rb  Rb3  1  0.25000  0.49969  0.25129  1
 Rb  Rb4  1  0.75000  0.50031  0.74871  1
 Rb  Rb5  1  0.25000  0.75163  0.58330  1
 Rb  Rb6  1  0.75000  0.24837  0.41670  1
 Rb  Rb7  1  0.25000  0.25163  0.91670  1
 Rb  Rb8  1  0.75000  0.74837  0.08330  1
 Te  Te1  1  0.25000  0.75040  0.91662  1
 Te  Te2  1  0.75000  0.24960  0.08338  1
 Te  Te3  1  0.25000  0.25040  0.58338  1
 Te  Te4  1  0.75000  0.74960  0.41662  1
