CIF file written using JARVIS-Tools package.
data_TcIr3
_symmetry_space_group_name_H-M  'P6_3/mmc'
_cell_length_a       5.52582
_cell_length_b       5.52582
_cell_length_c       4.39684
_cell_angle_alpha    90
_cell_angle_beta     90
_cell_angle_gamma    120

_symmetry_Int_Tables_number  194
_chemical_formula_structural  TcIr3
_chemical_formula_sum  Tc2Ir6
_cell_volume  116.2692402958542
_cell_formula_units_Z  2
loop_
  _symmetry_equiv_pos_site_id
 _symmetry_equiv_pos_as_xyz
 1  'x, y, z'
loop_
 _atom_site_type_symbol
 _atom_site_label
 _atom_site_symmetry_multiplicity
 _atom_site_fract_x
 _atom_site_fract_y
 _atom_site_fract_z
 _atom_site_fract_occupancy
 Ir  Ir1  1  0.66566  0.83283  0.75000  1
 Ir  Ir2  1  0.16717  0.33434  0.75000  1
 Ir  Ir3  1  0.16717  0.83283  0.75000  1
 Ir  Ir4  1  0.33434  0.16717  0.25000  1
 Ir  Ir5  1  0.83283  0.66566  0.25000  1
 Ir  Ir6  1  0.83283  0.16717  0.25000  1
 Tc  Tc1  1  0.33333  0.66667  0.25000  1
 Tc  Tc2  1  0.66667  0.33333  0.75000  1
