CIF file written using JARVIS-Tools package.
data_TlGeCl3
_symmetry_space_group_name_H-M  'Cm'
_cell_length_a       5.28754
_cell_length_b       5.28988
_cell_length_c       5.29052
_cell_angle_alpha    87.5063
_cell_angle_beta     92.3639
_cell_angle_gamma    92.3304

_symmetry_Int_Tables_number  8
_chemical_formula_structural  TlGeCl3
_chemical_formula_sum  TlGeCl3
_cell_volume  147.60070354972768
_cell_formula_units_Z  1
loop_
  _symmetry_equiv_pos_site_id
 _symmetry_equiv_pos_as_xyz
 1  'x, y, z'
loop_
 _atom_site_type_symbol
 _atom_site_label
 _atom_site_symmetry_multiplicity
 _atom_site_fract_x
 _atom_site_fract_y
 _atom_site_fract_z
 _atom_site_fract_occupancy
 Cl  Cl1  1  0.52905  0.48348  0.97517  1
 Cl  Cl2  1  0.03598  0.48428  0.48173  1
 Cl  Cl3  1  0.52920  0.97736  0.48146  1
 Ge  Ge1  1  0.50317  0.51092  0.50889  1
 Tl  Tl1  1  0.96260  0.05396  0.05276  1
