CIF file written using JARVIS-Tools package.
data_Li3TiCo3O8
_symmetry_space_group_name_H-M  'R-3m'
_cell_length_a       5.82735
_cell_length_b       5.66987
_cell_length_c       5.66988
_cell_angle_alpha    60
_cell_angle_beta     60.89
_cell_angle_gamma    90

_symmetry_Int_Tables_number  166
_chemical_formula_structural  Li3TiCo3O8
_chemical_formula_sum  Li3TiCo3O8
_cell_volume  134.2197173717418
_cell_formula_units_Z  1
loop_
  _symmetry_equiv_pos_site_id
 _symmetry_equiv_pos_as_xyz
 1  'x, y, z'
loop_
 _atom_site_type_symbol
 _atom_site_label
 _atom_site_symmetry_multiplicity
 _atom_site_fract_x
 _atom_site_fract_y
 _atom_site_fract_z
 _atom_site_fract_occupancy
 Co  Co1  1  0.00000  -0.00000  0.50000  1
 Co  Co2  1  0.00000  0.50000  0.00000  1
 Co  Co3  1  0.00000  0.50000  0.50000  1
 Li  Li1  1  0.50000  -0.00000  0.00000  1
 Li  Li2  1  0.50000  0.00000  0.50000  1
 Li  Li3  1  0.50000  0.50000  0.50000  1
 O  O1  1  0.22189  0.24153  0.01964  1
 O  O2  1  0.22189  0.24153  0.51693  1
 O  O3  1  0.22189  0.73883  0.01964  1
 O  O4  1  0.20961  0.73654  0.52693  1
 O  O5  1  0.79039  0.26346  0.47307  1
 O  O6  1  0.77811  0.26117  0.98036  1
 O  O7  1  0.77811  0.75847  0.48307  1
 O  O8  1  0.77811  0.75847  0.98036  1
 Ti  Ti1  1  0.00000  0.00000  0.00000  1
