CIF file written using JARVIS-Tools package.
data_MnN
_symmetry_space_group_name_H-M  'P6_3mc'
_cell_length_a       2.96324
_cell_length_b       2.96324
_cell_length_c       5.20324
_cell_angle_alpha    90
_cell_angle_beta     90
_cell_angle_gamma    120

_symmetry_Int_Tables_number  186
_chemical_formula_structural  MnN
_chemical_formula_sum  Mn2N2
_cell_volume  39.567492968690566
_cell_formula_units_Z  2
loop_
  _symmetry_equiv_pos_site_id
 _symmetry_equiv_pos_as_xyz
 1  'x, y, z'
loop_
 _atom_site_type_symbol
 _atom_site_label
 _atom_site_symmetry_multiplicity
 _atom_site_fract_x
 _atom_site_fract_y
 _atom_site_fract_z
 _atom_site_fract_occupancy
 Mn  Mn1  1  0.66667  0.33333  0.48953  1
 Mn  Mn2  1  0.33333  0.66667  0.98953  1
 N  N1  1  0.66667  0.33333  0.13247  1
 N  N2  1  0.33333  0.66667  0.63247  1
