CIF file written using JARVIS-Tools package.
data_BMo
_symmetry_space_group_name_H-M  'Cmcm'
_cell_length_a       3.08811
_cell_length_b       3.17118
_cell_length_c       4.56177
_cell_angle_alpha    110.34
_cell_angle_beta     90
_cell_angle_gamma    90

_symmetry_Int_Tables_number  63
_chemical_formula_structural  BMo
_chemical_formula_sum  B2Mo2
_cell_volume  41.88784642891778
_cell_formula_units_Z  2
loop_
  _symmetry_equiv_pos_site_id
 _symmetry_equiv_pos_as_xyz
 1  'x, y, z'
loop_
 _atom_site_type_symbol
 _atom_site_label
 _atom_site_symmetry_multiplicity
 _atom_site_fract_x
 _atom_site_fract_y
 _atom_site_fract_z
 _atom_site_fract_occupancy
 B  B1  1  0.25000  0.44136  0.88273  1
 B  B2  1  0.75000  0.55864  0.11727  1
 Mo  Mo1  1  0.25000  0.14504  0.29007  1
 Mo  Mo2  1  0.75000  0.85496  0.70993  1
