CIF file written using JARVIS-Tools package.
data_Bi2Pd
_symmetry_space_group_name_H-M  'I4/mmm'
_cell_length_a       3.42466
_cell_length_b       3.42465
_cell_length_c       6.94617
_cell_angle_alpha    104.271
_cell_angle_beta     104.271
_cell_angle_gamma    90.0001

_symmetry_Int_Tables_number  139
_chemical_formula_structural  Bi2Pd
_chemical_formula_sum  Bi2Pd
_cell_volume  76.35561972622612
_cell_formula_units_Z  1
loop_
  _symmetry_equiv_pos_site_id
 _symmetry_equiv_pos_as_xyz
 1  'x, y, z'
loop_
 _atom_site_type_symbol
 _atom_site_label
 _atom_site_symmetry_multiplicity
 _atom_site_fract_x
 _atom_site_fract_y
 _atom_site_fract_z
 _atom_site_fract_occupancy
 Bi  Bi1  1  0.63640  0.63640  0.27281  1
 Bi  Bi2  1  0.36360  0.36360  0.72719  1
 Pd  Pd1  1  0.00000  0.00000  0.00000  1
