CIF file written using JARVIS-Tools package.
data_VOF
_symmetry_space_group_name_H-M  'R-3'
_cell_length_a       5.92054
_cell_length_b       5.92044
_cell_length_c       5.92021
_cell_angle_alpha    100.173
_cell_angle_beta     100.172
_cell_angle_gamma    100.169

_symmetry_Int_Tables_number  148
_chemical_formula_structural  VOF
_chemical_formula_sum  V6O6F6
_cell_volume  196.36679831028306
_cell_formula_units_Z  6
loop_
  _symmetry_equiv_pos_site_id
 _symmetry_equiv_pos_as_xyz
 1  'x, y, z'
loop_
 _atom_site_type_symbol
 _atom_site_label
 _atom_site_symmetry_multiplicity
 _atom_site_fract_x
 _atom_site_fract_y
 _atom_site_fract_z
 _atom_site_fract_occupancy
 F  F1  1  0.06711  0.89941  0.67051  1
 F  F2  1  0.32949  0.93288  0.10058  1
 F  F3  1  0.67051  0.06712  0.89942  1
 F  F4  1  0.89941  0.67050  0.06712  1
 F  F5  1  0.93289  0.10059  0.32949  1
 F  F6  1  0.10059  0.32950  0.93288  1
 O  O1  1  0.17753  0.57438  0.41195  1
 O  O2  1  0.42563  0.58806  0.82246  1
 O  O3  1  0.58806  0.82247  0.42562  1
 O  O4  1  0.41194  0.17753  0.57438  1
 O  O5  1  0.82247  0.42562  0.58805  1
 O  O6  1  0.57437  0.41194  0.17754  1
 V  V1  1  0.60282  0.14671  0.33506  1
 V  V2  1  0.85329  0.66493  0.39720  1
 V  V3  1  0.66492  0.39718  0.85329  1
 V  V4  1  0.33508  0.60282  0.14671  1
 V  V5  1  0.14671  0.33507  0.60280  1
 V  V6  1  0.39718  0.85329  0.66494  1
