CIF file written using JARVIS-Tools package.
data_Li3Co3OF7
_symmetry_space_group_name_H-M  'R3m'
_cell_length_a       6.04046
_cell_length_b       5.84668
_cell_length_c       5.84668
_cell_angle_alpha    60
_cell_angle_beta     61.0556
_cell_angle_gamma    61.0556

_symmetry_Int_Tables_number  160
_chemical_formula_structural  Li3Co3OF7
_chemical_formula_sum  Li3Co3OF7
_cell_volume  148.29333055534948
_cell_formula_units_Z  1
loop_
  _symmetry_equiv_pos_site_id
 _symmetry_equiv_pos_as_xyz
 1  'x, y, z'
loop_
 _atom_site_type_symbol
 _atom_site_label
 _atom_site_symmetry_multiplicity
 _atom_site_fract_x
 _atom_site_fract_y
 _atom_site_fract_z
 _atom_site_fract_occupancy
 Co  Co1  1  0.63573  0.60396  0.15635  1
 Co  Co2  1  0.63573  0.15635  0.60396  1
 Co  Co3  1  0.63573  0.60396  0.60396  1
 F  F1  1  0.35902  0.38975  0.38975  1
 F  F2  1  0.35902  0.86147  0.38975  1
 F  F3  1  0.35902  0.38975  0.86147  1
 F  F4  1  0.86725  0.38937  0.87169  1
 F  F5  1  0.86725  0.87169  0.38937  1
 F  F6  1  0.86725  0.87169  0.87169  1
 F  F7  1  0.42245  0.85918  0.85918  1
 Li  Li1  1  0.01721  0.99426  0.99426  1
 Li  Li2  1  0.24456  0.25181  0.25181  1
 Li  Li3  1  0.10639  0.63120  0.63120  1
 O  O1  1  0.87338  0.37554  0.37554  1
