CIF file written using JARVIS-Tools package.
data_FePSe3
_symmetry_space_group_name_H-M  'R-3'
_cell_length_a       7.4875
_cell_length_b       7.4875
_cell_length_c       7.4875
_cell_angle_alpha    49.3635
_cell_angle_beta     49.3635
_cell_angle_gamma    49.3635

_symmetry_Int_Tables_number  148
_chemical_formula_structural  FePSe3
_chemical_formula_sum  Fe2P2Se6
_cell_volume  222.1347726546575
_cell_formula_units_Z  2
loop_
  _symmetry_equiv_pos_site_id
 _symmetry_equiv_pos_as_xyz
 1  'x, y, z'
loop_
 _atom_site_type_symbol
 _atom_site_label
 _atom_site_symmetry_multiplicity
 _atom_site_fract_x
 _atom_site_fract_y
 _atom_site_fract_z
 _atom_site_fract_occupancy
 Fe  Fe1  1  0.83139  0.83139  0.83139  1
 Fe  Fe2  1  0.16492  0.16492  0.16492  1
 P  P1  1  0.55491  0.55491  0.55491  1
 P  P2  1  0.44138  0.44138  0.44138  1
 Se  Se1  1  0.41437  0.76308  0.06720  1
 Se  Se2  1  0.06720  0.41437  0.76308  1
 Se  Se3  1  0.76308  0.06720  0.41437  1
 Se  Se4  1  0.58192  0.23323  0.92910  1
 Se  Se5  1  0.92910  0.58192  0.23323  1
 Se  Se6  1  0.23323  0.92910  0.58192  1
