CIF file written using JARVIS-Tools package.
data_NbAsPCl13
_symmetry_space_group_name_H-M  'Cmc2_1'
_cell_length_a       9.29552
_cell_length_b       9.29552
_cell_length_c       11.4135
_cell_angle_alpha    90
_cell_angle_beta     90
_cell_angle_gamma    115.338

_symmetry_Int_Tables_number  36
_chemical_formula_structural  NbAsPCl13
_chemical_formula_sum  Nb2As2P2Cl26
_cell_volume  891.3283261308435
_cell_formula_units_Z  2
loop_
  _symmetry_equiv_pos_site_id
 _symmetry_equiv_pos_as_xyz
 1  'x, y, z'
loop_
 _atom_site_type_symbol
 _atom_site_label
 _atom_site_symmetry_multiplicity
 _atom_site_fract_x
 _atom_site_fract_y
 _atom_site_fract_z
 _atom_site_fract_occupancy
 As  As1  1  0.45239  0.54761  0.85287  1
 As  As2  1  0.54761  0.45239  0.35287  1
 Cl  Cl1  1  0.62546  0.71346  0.36984  1
 Cl  Cl2  1  0.28654  0.37454  0.36984  1
 Cl  Cl3  1  0.25404  0.74596  0.58795  1
 Cl  Cl4  1  0.55538  0.44462  0.15674  1
 Cl  Cl5  1  0.02252  0.31798  0.61868  1
 Cl  Cl6  1  0.23886  0.08336  0.59682  1
 Cl  Cl7  1  0.74596  0.25404  0.08795  1
 Cl  Cl8  1  0.37454  0.28654  0.86984  1
 Cl  Cl9  1  0.31798  0.02252  0.11868  1
 Cl  Cl10  1  0.68202  0.97748  0.61868  1
 Cl  Cl11  1  0.91082  0.08918  0.37625  1
 Cl  Cl12  1  0.44462  0.55538  0.65674  1
 Cl  Cl13  1  0.76114  0.91664  0.09682  1
 Cl  Cl14  1  0.44462  0.89603  0.87930  1
 Cl  Cl15  1  0.55538  0.10397  0.37930  1
 Cl  Cl16  1  0.86770  0.13230  0.86493  1
 Cl  Cl17  1  0.89603  0.44462  0.37930  1
 Cl  Cl18  1  0.66581  0.33419  0.62148  1
 Cl  Cl19  1  0.10397  0.55538  0.87930  1
 Cl  Cl20  1  0.13230  0.86770  0.36493  1
 Cl  Cl21  1  0.33419  0.66581  0.12148  1
 Cl  Cl22  1  0.08336  0.23886  0.09682  1
 Cl  Cl23  1  0.91664  0.76114  0.59682  1
 Cl  Cl24  1  0.97748  0.68202  0.11868  1
 Cl  Cl25  1  0.08918  0.91082  0.87625  1
 Cl  Cl26  1  0.71346  0.62546  0.86984  1
 Nb  Nb1  1  0.21026  0.78974  0.00199  1
 Nb  Nb2  1  0.78974  0.21026  0.50199  1
 P  P1  1  0.13500  0.86500  0.53650  1
 P  P2  1  0.86500  0.13500  0.03650  1
