CIF file written using JARVIS-Tools package.
data_LiVCoO4
_symmetry_space_group_name_H-M  'Imma'
_cell_length_a       5.81936
_cell_length_b       5.81936
_cell_length_c       5.81936
_cell_angle_alpha    60.313
_cell_angle_beta     90.1014
_cell_angle_gamma    120.431

_symmetry_Int_Tables_number  74
_chemical_formula_structural  LiVCoO4
_chemical_formula_sum  Li2V2Co2O8
_cell_volume  139.2185259540795
_cell_formula_units_Z  2
loop_
  _symmetry_equiv_pos_site_id
 _symmetry_equiv_pos_as_xyz
 1  'x, y, z'
loop_
 _atom_site_type_symbol
 _atom_site_label
 _atom_site_symmetry_multiplicity
 _atom_site_fract_x
 _atom_site_fract_y
 _atom_site_fract_z
 _atom_site_fract_occupancy
 Co  Co1  1  0.50000  0.00000  0.50000  1
 Co  Co2  1  0.00000  0.50000  0.50000  1
 Li  Li1  1  0.50000  0.00000  -0.00000  1
 Li  Li2  1  0.50000  0.50000  0.50000  1
 O  O1  1  0.75742  0.00900  0.25158  1
 O  O2  1  0.75341  0.49913  0.24745  1
 O  O3  1  0.24659  -0.00087  0.25428  1
 O  O4  1  0.23942  0.49100  0.25158  1
 O  O5  1  0.76058  0.50900  0.74842  1
 O  O6  1  0.75341  0.00087  0.74572  1
 O  O7  1  0.24659  0.50087  0.75255  1
 O  O8  1  0.24258  0.99100  0.74842  1
 V  V1  1  0.12290  0.25000  0.12710  1
 V  V2  1  0.87710  0.75000  0.87290  1
