CIF file written using JARVIS-Tools package.
data_CrOF
_symmetry_space_group_name_H-M  'P2_1/c'
_cell_length_a       5.07067
_cell_length_b       4.51322
_cell_length_c       5.53724
_cell_angle_alpha    90
_cell_angle_beta     91.3477
_cell_angle_gamma    90

_symmetry_Int_Tables_number  14
_chemical_formula_structural  CrOF
_chemical_formula_sum  Cr4O4F4
_cell_volume  126.68498803999837
_cell_formula_units_Z  4
loop_
  _symmetry_equiv_pos_site_id
 _symmetry_equiv_pos_as_xyz
 1  'x, y, z'
loop_
 _atom_site_type_symbol
 _atom_site_label
 _atom_site_symmetry_multiplicity
 _atom_site_fract_x
 _atom_site_fract_y
 _atom_site_fract_z
 _atom_site_fract_occupancy
 Cr  Cr1  1  0.27372  0.47972  0.64943  1
 Cr  Cr2  1  0.27372  0.02028  0.14943  1
 Cr  Cr3  1  0.72628  0.97972  0.85057  1
 Cr  Cr4  1  0.72628  0.52028  0.35057  1
 F  F1  1  0.08015  0.75650  0.88729  1
 F  F2  1  0.08015  0.74350  0.38729  1
 F  F3  1  0.91985  0.25650  0.61271  1
 F  F4  1  0.91985  0.24350  0.11271  1
 O  O1  1  0.42632  0.22783  0.88754  1
 O  O2  1  0.42632  0.27217  0.38754  1
 O  O3  1  0.57368  0.72783  0.61246  1
 O  O4  1  0.57368  0.77217  0.11246  1
