CIF file written using JARVIS-Tools package.
data_Na2NiO2
_symmetry_space_group_name_H-M  'Immm'
_cell_length_a       2.86978
_cell_length_b       4.55776
_cell_length_c       5.45424
_cell_angle_alpha    114.7
_cell_angle_beta     105.251
_cell_angle_gamma    90.001

_symmetry_Int_Tables_number  71
_chemical_formula_structural  Na2NiO2
_chemical_formula_sum  Na2NiO2
_cell_volume  62.03628736129615
_cell_formula_units_Z  1
loop_
  _symmetry_equiv_pos_site_id
 _symmetry_equiv_pos_as_xyz
 1  'x, y, z'
loop_
 _atom_site_type_symbol
 _atom_site_label
 _atom_site_symmetry_multiplicity
 _atom_site_fract_x
 _atom_site_fract_y
 _atom_site_fract_z
 _atom_site_fract_occupancy
 Na  Na1  1  0.32040  0.81901  0.64674  1
 Na  Na2  1  0.67304  0.17161  0.35196  1
 Ni  Ni1  1  0.99672  0.49530  0.99936  1
 O  O1  1  0.62825  0.62684  0.26244  1
 O  O2  1  0.36521  0.36381  0.73629  1
