CIF file written using JARVIS-Tools package.
data_HfTeSe4
_symmetry_space_group_name_H-M  'P2/m'
_cell_length_a       3.86403
_cell_length_b       6.15663
_cell_length_c       6.85051
_cell_angle_alpha    90.7537
_cell_angle_beta     90
_cell_angle_gamma    90

_symmetry_Int_Tables_number  10
_chemical_formula_structural  HfTeSe4
_chemical_formula_sum  HfTeSe4
_cell_volume  162.95557154709786
_cell_formula_units_Z  1
loop_
  _symmetry_equiv_pos_site_id
 _symmetry_equiv_pos_as_xyz
 1  'x, y, z'
loop_
 _atom_site_type_symbol
 _atom_site_label
 _atom_site_symmetry_multiplicity
 _atom_site_fract_x
 _atom_site_fract_y
 _atom_site_fract_z
 _atom_site_fract_occupancy
 Hf  Hf1  1  0.50000  0.00000  0.50000  1
 Se  Se1  1  0.00000  0.74697  0.65398  1
 Se  Se2  1  0.50000  0.26161  0.81762  1
 Se  Se3  1  0.50000  0.73839  0.18238  1
 Se  Se4  1  0.00000  0.25303  0.34602  1
 Te  Te1  1  0.00000  0.00000  0.00000  1
