CIF file written using JARVIS-Tools package.
data_Li5Fe2Ni5O12
_symmetry_space_group_name_H-M  'C2'
_cell_length_a       5.0048
_cell_length_b       5.00479
_cell_length_c       9.56203
_cell_angle_alpha    85.3151
_cell_angle_beta     94.6848
_cell_angle_gamma    60.4601

_symmetry_Int_Tables_number  5
_chemical_formula_structural  Li5Fe2Ni5O12
_chemical_formula_sum  Li5Fe2Ni5O2
_cell_volume  205.61630790219877
_cell_formula_units_Z  1
loop_
  _symmetry_equiv_pos_site_id
 _symmetry_equiv_pos_as_xyz
 1  'x, y, z'
loop_
 _atom_site_type_symbol
 _atom_site_label
 _atom_site_symmetry_multiplicity
 _atom_site_fract_x
 _atom_site_fract_y
 _atom_site_fract_z
 _atom_site_fract_occupancy
 Fe  Fe1  1  0.24750  0.24750  0.75000  1
 Fe  Fe2  1  0.75147  0.75147  0.25000  1
 Li  Li1  1  0.15416  0.67149  0.50515  1
 Li  Li2  1  0.33903  0.83088  0.99638  1
 Li  Li3  1  0.67149  0.15416  0.99485  1
 Li  Li4  1  0.83088  0.33903  0.50362  1
 Li  Li5  1  0.91105  0.91105  0.75000  1
 Ni  Ni1  1  0.08417  0.08417  0.25000  1
 Ni  Ni2  1  0.58069  0.58069  0.75000  1
 Ni  Ni3  1  -0.00133  0.50592  0.99732  1
 Ni  Ni4  1  0.42012  0.42012  0.25000  1
 Ni  Ni5  1  0.50592  -0.00133  0.50268  1
 O  O1  1  0.84862  0.63063  0.62715  1
 O  O2  1  0.78250  0.03436  0.36643  1
 O  O3  1  0.97630  0.22175  0.86648  1
 O  O4  1  0.22175  0.97630  0.63352  1
 O  O5  1  0.10945  0.39548  0.36524  1
 O  O6  1  0.39548  0.10945  0.13476  1
 O  O7  1  0.30577  0.50917  0.86591  1
 O  O8  1  0.50917  0.30577  0.63409  1
 O  O9  1  0.46740  0.72340  0.36408  1
 O  O10  1  0.72340  0.46740  0.13592  1
 O  O11  1  0.63063  0.84862  0.87285  1
 O  O12  1  0.03436  0.78250  0.13357  1
