CIF file written using JARVIS-Tools package.
data_SiP2
_symmetry_space_group_name_H-M  'Pbam'
_cell_length_a       3.47987
_cell_length_b       9.946
_cell_length_c       14.4792
_cell_angle_alpha    90
_cell_angle_beta     90
_cell_angle_gamma    90

_symmetry_Int_Tables_number  55
_chemical_formula_structural  SiP2
_chemical_formula_sum  Si8P6
_cell_volume  501.1360983025844
_cell_formula_units_Z  8
loop_
  _symmetry_equiv_pos_site_id
 _symmetry_equiv_pos_as_xyz
 1  'x, y, z'
loop_
 _atom_site_type_symbol
 _atom_site_label
 _atom_site_symmetry_multiplicity
 _atom_site_fract_x
 _atom_site_fract_y
 _atom_site_fract_z
 _atom_site_fract_occupancy
 P  P1  1  0.50000  0.38939  0.61311  1
 P  P2  1  0.00000  0.66518  0.70439  1
 P  P3  1  0.00000  0.33482  0.29561  1
 P  P4  1  0.00000  0.16518  0.79561  1
 P  P5  1  0.50000  0.45275  0.88841  1
 P  P6  1  0.00000  0.77137  0.95066  1
 P  P7  1  0.00000  0.22863  0.04934  1
 P  P8  1  0.00000  0.83482  0.20439  1
 P  P9  1  0.00000  0.72863  0.45066  1
 P  P10  1  0.50000  0.88939  0.88689  1
 P  P11  1  0.50000  0.11061  0.11311  1
 P  P12  1  0.50000  0.54725  0.11159  1
 P  P13  1  0.50000  0.61061  0.38689  1
 P  P14  1  0.50000  0.95275  0.61159  1
 P  P15  1  0.50000  0.04725  0.38841  1
 P  P16  1  0.00000  0.27137  0.54934  1
 Si  Si1  1  0.50000  0.69336  0.23378  1
 Si  Si2  1  0.50000  0.30664  0.76622  1
 Si  Si3  1  0.50000  0.19336  0.26622  1
 Si  Si4  1  0.50000  0.80664  0.73378  1
 Si  Si5  1  0.00000  0.91056  0.35256  1
 Si  Si6  1  0.00000  0.08944  0.64744  1
 Si  Si7  1  0.00000  0.41056  0.14744  1
 Si  Si8  1  0.00000  0.58944  0.85256  1
