CIF file written using JARVIS-Tools package.
data_Na2VPCO7
_symmetry_space_group_name_H-M  'P2_1'
_cell_length_a       5.20665
_cell_length_b       6.41105
_cell_length_c       8.97476
_cell_angle_alpha    90
_cell_angle_beta     91.9608
_cell_angle_gamma    90

_symmetry_Int_Tables_number  4
_chemical_formula_structural  Na2VPCO7
_chemical_formula_sum  Na4V2P2C2O4
_cell_volume  299.40250975375375
_cell_formula_units_Z  2
loop_
  _symmetry_equiv_pos_site_id
 _symmetry_equiv_pos_as_xyz
 1  'x, y, z'
loop_
 _atom_site_type_symbol
 _atom_site_label
 _atom_site_symmetry_multiplicity
 _atom_site_fract_x
 _atom_site_fract_y
 _atom_site_fract_z
 _atom_site_fract_occupancy
 C  C1  1  0.70675  0.74919  0.93361  1
 C  C2  1  0.29325  0.24919  0.06639  1
 Na  Na1  1  0.78131  0.22664  0.91593  1
 Na  Na2  1  0.25515  0.47172  0.72842  1
 Na  Na3  1  0.74485  0.97172  0.27158  1
 Na  Na4  1  0.21869  0.72664  0.08407  1
 O  O1  1  0.33266  0.26447  0.92858  1
 O  O2  1  0.06053  0.25079  0.11981  1
 O  O3  1  0.52191  0.73637  0.83123  1
 O  O4  1  0.77123  0.06289  0.67843  1
 O  O5  1  0.78980  0.44309  0.67667  1
 O  O6  1  0.93947  0.75079  0.88019  1
 O  O7  1  0.42833  0.26607  0.53077  1
 O  O8  1  0.57167  0.76607  0.46923  1
 O  O9  1  0.22877  0.56289  0.32157  1
 O  O10  1  0.21020  0.94309  0.32333  1
 O  O11  1  0.12133  0.74399  0.56511  1
 O  O12  1  0.47809  0.23637  0.16877  1
 O  O13  1  0.87867  0.24399  0.43489  1
 O  O14  1  0.66734  0.76447  0.07142  1
 P  P1  1  0.28263  0.75352  0.42515  1
 P  P2  1  0.71737  0.25352  0.57485  1
 V  V1  1  0.21553  0.25928  0.33752  1
 V  V2  1  0.78447  0.75928  0.66248  1
