CIF file written using JARVIS-Tools package.
data_MgSb2O4
_symmetry_space_group_name_H-M  'P2_1'
_cell_length_a       7.01465
_cell_length_b       6.33232
_cell_length_c       10.0135
_cell_angle_alpha    89.9992
_cell_angle_beta     94.9005
_cell_angle_gamma    90.0007

_symmetry_Int_Tables_number  4
_chemical_formula_structural  MgSb2O4
_chemical_formula_sum  Mg4Sb8O6
_cell_volume  443.1633468384326
_cell_formula_units_Z  4
loop_
  _symmetry_equiv_pos_site_id
 _symmetry_equiv_pos_as_xyz
 1  'x, y, z'
loop_
 _atom_site_type_symbol
 _atom_site_label
 _atom_site_symmetry_multiplicity
 _atom_site_fract_x
 _atom_site_fract_y
 _atom_site_fract_z
 _atom_site_fract_occupancy
 Mg  Mg1  1  0.81784  0.21160  0.72831  1
 Mg  Mg2  1  0.18215  0.71162  0.27170  1
 Mg  Mg3  1  0.44823  0.21255  0.22083  1
 Mg  Mg4  1  0.55177  0.71254  0.77917  1
 O  O1  1  0.00708  0.80219  0.41764  1
 O  O2  1  0.72415  0.00533  0.55686  1
 O  O3  1  -0.00702  0.30211  0.58240  1
 O  O4  1  0.98215  0.25429  0.90110  1
 O  O5  1  0.38636  0.80264  0.61136  1
 O  O6  1  0.34787  0.70461  0.91331  1
 O  O7  1  0.01783  0.75430  0.09891  1
 O  O8  1  0.65210  0.20462  0.08668  1
 O  O9  1  0.63349  0.01458  0.82769  1
 O  O10  1  0.39240  0.93339  0.32582  1
 O  O11  1  0.36649  0.51458  0.17231  1
 O  O12  1  0.30567  0.05102  0.04997  1
 O  O13  1  0.61365  0.30264  0.38864  1
 O  O14  1  0.60761  0.43338  0.67417  1
 O  O15  1  0.27584  0.50534  0.44313  1
 O  O16  1  0.69432  0.55103  0.95002  1
 Sb  Sb1  1  0.47277  0.22499  0.91424  1
 Sb  Sb2  1  0.55601  0.75122  0.45792  1
 Sb  Sb3  1  0.52722  0.72500  0.08575  1
 Sb  Sb4  1  0.44400  0.25122  0.54207  1
 Sb  Sb5  1  0.09832  0.88545  0.93575  1
 Sb  Sb6  1  0.11334  0.64617  0.58076  1
 Sb  Sb7  1  0.88671  0.14616  0.41926  1
 Sb  Sb8  1  0.90165  0.38545  0.06425  1
