CIF file written using JARVIS-Tools package.
data_Li4Mn5O9F
_symmetry_space_group_name_H-M  'P1'
_cell_length_a       5.10588
_cell_length_b       5.33894
_cell_length_c       7.76979
_cell_angle_alpha    105.332
_cell_angle_beta     103.294
_cell_angle_gamma    102.877

_symmetry_Int_Tables_number  1
_chemical_formula_structural  Li4Mn5O9F
_chemical_formula_sum  Li4Mn5O9F
_cell_volume  189.49601766492034
_cell_formula_units_Z  1
loop_
  _symmetry_equiv_pos_site_id
 _symmetry_equiv_pos_as_xyz
 1  'x, y, z'
loop_
 _atom_site_type_symbol
 _atom_site_label
 _atom_site_symmetry_multiplicity
 _atom_site_fract_x
 _atom_site_fract_y
 _atom_site_fract_z
 _atom_site_fract_occupancy
 F  F1  1  0.75013  0.05645  0.73741  1
 Li  Li1  1  0.71755  0.41410  0.91912  1
 Li  Li2  1  0.89372  0.81115  0.30691  1
 Li  Li3  1  0.49509  0.96219  0.47741  1
 Li  Li4  1  0.11214  0.18345  0.68944  1
 Mn  Mn1  1  0.20215  0.40258  0.39171  1
 Mn  Mn2  1  0.00878  0.98445  0.00649  1
 Mn  Mn3  1  0.60133  0.18332  0.20078  1
 Mn  Mn4  1  0.79255  0.59263  0.59737  1
 Mn  Mn5  1  0.38904  0.79048  0.80566  1
 O  O1  1  0.35627  0.13894  0.95257  1
 O  O2  1  0.86289  0.21302  0.43688  1
 O  O3  1  0.27853  0.03019  0.26715  1
 O  O4  1  0.66423  0.79860  0.02692  1
 O  O5  1  0.94322  0.33806  0.14508  1
 O  O6  1  0.13767  0.80030  0.57127  1
 O  O7  1  0.55596  0.59851  0.37114  1
 O  O8  1  0.00161  0.63393  0.84296  1
 O  O9  1  0.43603  0.45919  0.65150  1
