CIF file written using JARVIS-Tools package.
data_CaTcN3
_symmetry_space_group_name_H-M  'C2/m'
_cell_length_a       3.64326
_cell_length_b       6.384
_cell_length_c       6.4567
_cell_angle_alpha    105.284
_cell_angle_beta     89.9999
_cell_angle_gamma    106.579

_symmetry_Int_Tables_number  12
_chemical_formula_structural  CaTcN3
_chemical_formula_sum  Ca2Tc2N6
_cell_volume  138.37951674103311
_cell_formula_units_Z  2
loop_
  _symmetry_equiv_pos_site_id
 _symmetry_equiv_pos_as_xyz
 1  'x, y, z'
loop_
 _atom_site_type_symbol
 _atom_site_label
 _atom_site_symmetry_multiplicity
 _atom_site_fract_x
 _atom_site_fract_y
 _atom_site_fract_z
 _atom_site_fract_occupancy
 Ca  Ca1  1  0.37974  0.75948  0.67296  1
 Ca  Ca2  1  0.62026  0.24052  0.32704  1
 N  N1  1  0.15664  0.31328  0.57892  1
 N  N2  1  0.67941  0.35883  0.99118  1
 N  N3  1  0.99875  0.99751  0.09896  1
 N  N4  1  0.84336  0.68672  0.42108  1
 N  N5  1  0.00125  0.00249  0.90104  1
 N  N6  1  0.32059  0.64117  0.00882  1
 Tc  Tc1  1  0.15427  0.30854  0.84817  1
 Tc  Tc2  1  0.84573  0.69146  0.15183  1
