CIF file written using JARVIS-Tools package.
data_Al3Tc
_symmetry_space_group_name_H-M  'I4/mmm'
_cell_length_a       4.85851
_cell_length_b       4.85851
_cell_length_c       4.85851
_cell_angle_alpha    133.407
_cell_angle_beta     133.407
_cell_angle_gamma    68.0154

_symmetry_Int_Tables_number  139
_chemical_formula_structural  Al3Tc
_chemical_formula_sum  Al3Tc
_cell_volume  59.47953527183676
_cell_formula_units_Z  1
loop_
  _symmetry_equiv_pos_site_id
 _symmetry_equiv_pos_as_xyz
 1  'x, y, z'
loop_
 _atom_site_type_symbol
 _atom_site_label
 _atom_site_symmetry_multiplicity
 _atom_site_fract_x
 _atom_site_fract_y
 _atom_site_fract_z
 _atom_site_fract_occupancy
 Al  Al1  1  0.75000  0.25000  0.50000  1
 Al  Al2  1  0.25000  0.75000  0.50000  1
 Al  Al3  1  0.50000  0.50000  0.00000  1
 Tc  Tc1  1  0.00000  0.00000  0.00000  1
