CIF file written using JARVIS-Tools package.
data_LiMn4O8
_symmetry_space_group_name_H-M  'R-3m'
_cell_length_a       5.70995
_cell_length_b       5.84673
_cell_length_c       5.84261
_cell_angle_alpha    58.4775
_cell_angle_beta     60.7483
_cell_angle_gamma    90

_symmetry_Int_Tables_number  166
_chemical_formula_structural  LiMn4O8
_chemical_formula_sum  LiMn4O8
_cell_volume  136.23984886150956
_cell_formula_units_Z  1
loop_
  _symmetry_equiv_pos_site_id
 _symmetry_equiv_pos_as_xyz
 1  'x, y, z'
loop_
 _atom_site_type_symbol
 _atom_site_label
 _atom_site_symmetry_multiplicity
 _atom_site_fract_x
 _atom_site_fract_y
 _atom_site_fract_z
 _atom_site_fract_occupancy
 Li  Li1  1  0.50000  0.50000  -0.00000  1
 Mn  Mn1  1  0.50000  0.50000  0.50000  1
 Mn  Mn2  1  0.50000  0.00000  0.00000  1
 Mn  Mn3  1  -0.00000  0.50000  0.50000  1
 Mn  Mn4  1  0.00000  0.00000  0.00000  1
 O  O1  1  0.73179  0.76237  0.03026  1
 O  O2  1  0.76205  0.73150  0.47590  1
 O  O3  1  0.73388  0.26643  0.53225  1
 O  O4  1  0.23795  0.76237  0.03026  1
 O  O5  1  0.76205  0.23763  0.96974  1
 O  O6  1  0.26612  0.73357  0.46775  1
 O  O7  1  0.23795  0.26850  0.52410  1
 O  O8  1  0.26821  0.23763  0.96974  1
