CIF file written using JARVIS-Tools package.
data_VOF
_symmetry_space_group_name_H-M  'Pnma'
_cell_length_a       3.26144
_cell_length_b       3.72855
_cell_length_c       9.87625
_cell_angle_alpha    90
_cell_angle_beta     90
_cell_angle_gamma    90

_symmetry_Int_Tables_number  62
_chemical_formula_structural  VOF
_chemical_formula_sum  V4O4F4
_cell_volume  120.09938239355714
_cell_formula_units_Z  4
loop_
  _symmetry_equiv_pos_site_id
 _symmetry_equiv_pos_as_xyz
 1  'x, y, z'
loop_
 _atom_site_type_symbol
 _atom_site_label
 _atom_site_symmetry_multiplicity
 _atom_site_fract_x
 _atom_site_fract_y
 _atom_site_fract_z
 _atom_site_fract_occupancy
 F  F1  1  0.75002  0.20310  0.27736  1
 F  F2  1  0.25002  0.29690  0.72264  1
 F  F3  1  0.24998  0.70310  0.22264  1
 F  F4  1  0.74998  0.79690  0.77736  1
 O  O1  1  0.75001  0.99176  0.52040  1
 O  O2  1  0.25001  0.50824  0.47960  1
 O  O3  1  0.24999  0.49176  0.97960  1
 O  O4  1  0.74999  0.00824  0.02040  1
 V  V1  1  0.25003  0.01763  0.39904  1
 V  V2  1  0.75003  0.48237  0.60096  1
 V  V3  1  0.74997  0.51763  0.10096  1
 V  V4  1  0.24997  0.98237  0.89904  1
