CIF file written using JARVIS-Tools package.
data_Li5Cr2Fe3O10
_symmetry_space_group_name_H-M  'P-1'
_cell_length_a       5.07476
_cell_length_b       5.01971
_cell_length_c       7.81399
_cell_angle_alpha    70.983
_cell_angle_beta     69.6153
_cell_angle_gamma    79.0792

_symmetry_Int_Tables_number  2
_chemical_formula_structural  Li5Cr2Fe3O10
_chemical_formula_sum  Li5Cr2Fe3O0
_cell_volume  175.7541117063447
_cell_formula_units_Z  1
loop_
  _symmetry_equiv_pos_site_id
 _symmetry_equiv_pos_as_xyz
 1  'x, y, z'
loop_
 _atom_site_type_symbol
 _atom_site_label
 _atom_site_symmetry_multiplicity
 _atom_site_fract_x
 _atom_site_fract_y
 _atom_site_fract_z
 _atom_site_fract_occupancy
 Cr  Cr1  1  0.99618  0.09692  0.31012  1
 Cr  Cr2  1  0.00189  0.90163  0.69021  1
 Fe  Fe1  1  -0.00508  0.30917  0.89805  1
 Fe  Fe2  1  0.49902  0.99928  0.00016  1
 Fe  Fe3  1  0.00318  0.68938  0.10227  1
 Li  Li1  1  0.50344  0.78587  0.40856  1
 Li  Li2  1  0.49124  0.39115  0.22081  1
 Li  Li3  1  0.99902  0.49927  0.50017  1
 Li  Li4  1  0.50686  0.60741  0.77951  1
 Li  Li5  1  0.49462  0.21267  0.59174  1
 O  O1  1  0.25460  0.33039  0.05881  1
 O  O2  1  0.22369  0.13388  0.45557  1
 O  O3  1  0.22622  0.94333  0.84641  1
 O  O4  1  0.77439  0.86467  0.54475  1
 O  O5  1  0.74349  0.66818  0.94152  1
 O  O6  1  0.25409  0.77380  0.23638  1
 O  O7  1  0.22755  0.55396  0.66302  1
 O  O8  1  0.77052  0.44459  0.33731  1
 O  O9  1  0.74400  0.22476  0.76395  1
 O  O10  1  0.77188  0.05522  0.15391  1
