CIF file written using JARVIS-Tools package.
data_Li2Mn3NiO8
_symmetry_space_group_name_H-M  'R-3m'
_cell_length_a       5.81596
_cell_length_b       5.81596
_cell_length_c       5.73106
_cell_angle_alpha    60.4818
_cell_angle_beta     90
_cell_angle_gamma    120.963

_symmetry_Int_Tables_number  166
_chemical_formula_structural  Li2Mn3NiO8
_chemical_formula_sum  Li2Mn3NiO8
_cell_volume  136.05074633857532
_cell_formula_units_Z  1
loop_
  _symmetry_equiv_pos_site_id
 _symmetry_equiv_pos_as_xyz
 1  'x, y, z'
loop_
 _atom_site_type_symbol
 _atom_site_label
 _atom_site_symmetry_multiplicity
 _atom_site_fract_x
 _atom_site_fract_y
 _atom_site_fract_z
 _atom_site_fract_occupancy
 Li  Li1  1  0.12280  0.25440  0.12280  1
 Li  Li2  1  0.87720  0.74560  0.87720  1
 Mn  Mn1  1  0.50000  0.00000  -0.00000  1
 Mn  Mn2  1  0.50000  -0.00000  0.50000  1
 Mn  Mn3  1  -0.00000  0.50000  0.50000  1
 Ni  Ni1  1  0.50000  0.50000  0.50000  1
 O  O1  1  0.74329  0.46673  0.28998  1
 O  O2  1  0.73792  0.02416  0.73792  1
 O  O3  1  0.28998  0.01342  0.74329  1
 O  O4  1  0.74329  0.46673  0.74329  1
 O  O5  1  0.25671  0.53327  0.25671  1
 O  O6  1  0.71002  0.98658  0.25671  1
 O  O7  1  0.26208  0.97584  0.26208  1
 O  O8  1  0.25671  0.53327  0.71002  1
