CIF file written using JARVIS-Tools package.
data_TeMoS
_symmetry_space_group_name_H-M  'P3m1'
_cell_length_a       3.37623
_cell_length_b       26.6055
_cell_length_c       3.37616
_cell_angle_alpha    89.9886
_cell_angle_beta     120
_cell_angle_gamma    90.0023

_symmetry_Int_Tables_number  156
_chemical_formula_structural  TeMoS
_chemical_formula_sum  Te4Mo4S4
_cell_volume  262.6372469968991
_cell_formula_units_Z  4
loop_
  _symmetry_equiv_pos_site_id
 _symmetry_equiv_pos_as_xyz
 1  'x, y, z'
loop_
 _atom_site_type_symbol
 _atom_site_label
 _atom_site_symmetry_multiplicity
 _atom_site_fract_x
 _atom_site_fract_y
 _atom_site_fract_z
 _atom_site_fract_occupancy
 Mo  Mo1  1  0.33338  0.37185  0.66669  1
 Mo  Mo2  1  0.66667  0.12333  0.33335  1
 Mo  Mo3  1  0.33329  0.87229  0.66659  1
 Mo  Mo4  1  0.66666  0.62137  0.33339  1
 S  S1  1  0.66675  0.31655  0.33347  1
 S  S2  1  0.66659  0.92898  0.33315  1
 S  S3  1  0.66667  0.81576  0.33337  1
 S  S4  1  0.33337  0.56597  0.66684  1
 Te  Te1  1  0.33329  0.19451  0.66653  1
 Te  Te2  1  0.66667  0.44382  0.33321  1
 Te  Te3  1  0.33338  0.05226  0.66682  1
 Te  Te4  1  0.33328  0.69331  0.66658  1
