CIF file written using JARVIS-Tools package.
data_Li4P2O7
_symmetry_space_group_name_H-M  'P-1'
_cell_length_a       5.48963
_cell_length_b       5.74298
_cell_length_c       9.87404
_cell_angle_alpha    103.851
_cell_angle_beta     97.536
_cell_angle_gamma    98.8766

_symmetry_Int_Tables_number  2
_chemical_formula_structural  Li4P2O7
_chemical_formula_sum  Li8P4O4
_cell_volume  294.0048147408069
_cell_formula_units_Z  2
loop_
  _symmetry_equiv_pos_site_id
 _symmetry_equiv_pos_as_xyz
 1  'x, y, z'
loop_
 _atom_site_type_symbol
 _atom_site_label
 _atom_site_symmetry_multiplicity
 _atom_site_fract_x
 _atom_site_fract_y
 _atom_site_fract_z
 _atom_site_fract_occupancy
 Li  Li1  1  0.19545  0.89427  0.19380  1
 Li  Li2  1  0.80455  0.10573  0.80620  1
 Li  Li3  1  0.58913  0.31520  0.42023  1
 Li  Li4  1  0.41087  0.68480  0.57977  1
 Li  Li5  1  0.69781  0.76081  0.30204  1
 Li  Li6  1  0.30219  0.23919  0.69796  1
 Li  Li7  1  0.69493  0.68872  0.00013  1
 Li  Li8  1  0.30507  0.31128  -0.00013  1
 O  O1  1  0.03324  0.95705  0.34597  1
 O  O2  1  0.95691  0.63060  0.73687  1
 O  O3  1  0.64672  0.46690  0.13326  1
 O  O4  1  0.35328  0.53310  0.86674  1
 O  O5  1  0.53590  0.02509  0.24766  1
 O  O6  1  0.04309  0.36940  0.26313  1
 O  O7  1  0.94272  0.24082  0.99607  1
 O  O8  1  0.67222  0.02072  0.12493  1
 O  O9  1  0.05728  0.75918  0.00393  1
 O  O10  1  0.30523  0.33068  0.51453  1
 O  O11  1  0.69477  0.66932  0.48547  1
 O  O12  1  0.46410  0.97491  0.75234  1
 O  O13  1  0.32778  0.97928  0.87507  1
 O  O14  1  0.96676  0.04295  0.65403  1
 P  P1  1  0.16665  0.70871  0.86862  1
 P  P2  1  0.83335  0.29129  0.13138  1
 P  P3  1  0.03154  0.22285  0.43088  1
 P  P4  1  0.96846  0.77715  0.56912  1
