CIF file written using JARVIS-Tools package.
data_LiCoC2O6
_symmetry_space_group_name_H-M  'R-3'
_cell_length_a       4.5244
_cell_length_b       5.51598
_cell_length_c       4.5244
_cell_angle_alpha    65.7878
_cell_angle_beta     120
_cell_angle_gamma    114.212

_symmetry_Int_Tables_number  148
_chemical_formula_structural  LiCoC2O6
_chemical_formula_sum  LiCoC2O6
_cell_volume  86.12573715551758
_cell_formula_units_Z  1
loop_
  _symmetry_equiv_pos_site_id
 _symmetry_equiv_pos_as_xyz
 1  'x, y, z'
loop_
 _atom_site_type_symbol
 _atom_site_label
 _atom_site_symmetry_multiplicity
 _atom_site_fract_x
 _atom_site_fract_y
 _atom_site_fract_z
 _atom_site_fract_occupancy
 C  C1  1  0.24198  0.72593  0.75802  1
 C  C2  1  0.75802  0.27407  0.24198  1
 Co  Co1  1  0.50000  0.50000  0.50000  1
 Li  Li1  1  0.00000  0.00000  0.00000  1
 O  O1  1  0.05047  0.26928  0.26064  1
 O  O2  1  0.52055  0.73072  0.05047  1
 O  O3  1  0.26064  0.73072  0.47945  1
 O  O4  1  0.73936  0.26928  0.52055  1
 O  O5  1  0.47945  0.26928  0.94953  1
 O  O6  1  0.94953  0.73072  0.73936  1
