CIF file written using JARVIS-Tools package.
data_TiO2
_symmetry_space_group_name_H-M  'I4_1/amd'
_cell_length_a       3.80799
_cell_length_b       3.80799
_cell_length_c       5.51762
_cell_angle_alpha    110.186
_cell_angle_beta     110.186
_cell_angle_gamma    89.9999

_symmetry_Int_Tables_number  141
_chemical_formula_structural  TiO2
_chemical_formula_sum  Ti2O4
_cell_volume  69.83574840297592
_cell_formula_units_Z  2
loop_
  _symmetry_equiv_pos_site_id
 _symmetry_equiv_pos_as_xyz
 1  'x, y, z'
loop_
 _atom_site_type_symbol
 _atom_site_label
 _atom_site_symmetry_multiplicity
 _atom_site_fract_x
 _atom_site_fract_y
 _atom_site_fract_z
 _atom_site_fract_occupancy
 O  O1  1  0.33285  0.58285  0.16571  1
 O  O2  1  0.08285  0.83285  0.66571  1
 O  O3  1  0.91715  0.16715  0.33429  1
 O  O4  1  0.66715  0.41715  0.83429  1
 Ti  Ti1  1  0.87500  0.62500  0.25000  1
 Ti  Ti2  1  0.12500  0.37500  0.75000  1
