CIF file written using JARVIS-Tools package.
data_LiVF4
_symmetry_space_group_name_H-M  'Pbcn'
_cell_length_a       4.59377
_cell_length_b       5.63817
_cell_length_c       10.0639
_cell_angle_alpha    90
_cell_angle_beta     90
_cell_angle_gamma    90

_symmetry_Int_Tables_number  60
_chemical_formula_structural  LiVF4
_chemical_formula_sum  Li4V4F6
_cell_volume  260.66006751068977
_cell_formula_units_Z  4
loop_
  _symmetry_equiv_pos_site_id
 _symmetry_equiv_pos_as_xyz
 1  'x, y, z'
loop_
 _atom_site_type_symbol
 _atom_site_label
 _atom_site_symmetry_multiplicity
 _atom_site_fract_x
 _atom_site_fract_y
 _atom_site_fract_z
 _atom_site_fract_occupancy
 F  F1  1  0.73132  0.26638  0.42180  1
 F  F2  1  0.22296  0.51726  0.34075  1
 F  F3  1  0.22296  0.48274  0.84075  1
 F  F4  1  0.23132  0.76638  0.07820  1
 F  F5  1  0.77704  0.51726  0.15925  1
 F  F6  1  0.26868  0.26638  0.07820  1
 F  F7  1  0.26868  0.73362  0.57820  1
 F  F8  1  0.23132  0.23362  0.57820  1
 F  F9  1  0.27704  0.98274  0.84075  1
 F  F10  1  0.72296  0.01726  0.15925  1
 F  F11  1  0.72296  0.98274  0.65925  1
 F  F12  1  0.77704  0.48274  0.65925  1
 F  F13  1  0.73132  0.73362  0.92180  1
 F  F14  1  0.76868  0.23362  0.92180  1
 F  F15  1  0.76868  0.76638  0.42180  1
 F  F16  1  0.27704  0.01726  0.34075  1
 Li  Li1  1  0.50000  0.69035  0.75000  1
 Li  Li2  1  0.50000  0.30965  0.25000  1
 Li  Li3  1  0.00000  0.19035  0.75000  1
 Li  Li4  1  0.00000  0.80965  0.25000  1
 V  V1  1  0.50000  0.00000  0.50000  1
 V  V2  1  0.50000  0.00000  0.00000  1
 V  V3  1  0.00000  0.50000  0.50000  1
 V  V4  1  0.00000  0.50000  0.00000  1
