CIF file written using JARVIS-Tools package.
data_Fe3S4
_symmetry_space_group_name_H-M  'C2/m'
_cell_length_a       3.30138
_cell_length_b       5.51564
_cell_length_c       11.0584
_cell_angle_alpha    104.103
_cell_angle_beta     81.4154
_cell_angle_gamma    89.9999

_symmetry_Int_Tables_number  12
_chemical_formula_structural  Fe3S4
_chemical_formula_sum  Fe6S8
_cell_volume  192.96876639167334
_cell_formula_units_Z  2
loop_
  _symmetry_equiv_pos_site_id
 _symmetry_equiv_pos_as_xyz
 1  'x, y, z'
loop_
 _atom_site_type_symbol
 _atom_site_label
 _atom_site_symmetry_multiplicity
 _atom_site_fract_x
 _atom_site_fract_y
 _atom_site_fract_z
 _atom_site_fract_occupancy
 Fe  Fe1  1  0.12519  0.39690  0.74963  1
 Fe  Fe2  1  0.61799  0.81810  0.76401  1
 Fe  Fe3  1  0.25192  0.20519  0.49616  1
 Fe  Fe4  1  0.74808  0.79476  0.50383  1
 Fe  Fe5  1  0.38201  0.18191  0.23598  1
 Fe  Fe6  1  0.87481  0.60312  0.25037  1
 S  S1  1  0.05800  0.75732  0.88401  1
 S  S2  1  0.57406  0.24620  0.85188  1
 S  S3  1  0.30357  0.53266  0.39287  1
 S  S4  1  0.81869  0.02367  0.36262  1
 S  S5  1  0.18131  0.97631  0.63739  1
 S  S6  1  0.69643  0.46731  0.60714  1
 S  S7  1  0.94201  0.24271  0.11599  1
 S  S8  1  0.42594  0.75383  0.14812  1
