CIF file written using JARVIS-Tools package.
data_Li2VF6
_symmetry_space_group_name_H-M  'P312'
_cell_length_a       4.46406
_cell_length_b       8.6094
_cell_length_c       4.97024
_cell_angle_alpha    90
_cell_angle_beta     90.0682
_cell_angle_gamma    90

_symmetry_Int_Tables_number  149
_chemical_formula_structural  Li2VF6
_chemical_formula_sum  Li4V2F2
_cell_volume  191.0208444998632
_cell_formula_units_Z  2
loop_
  _symmetry_equiv_pos_site_id
 _symmetry_equiv_pos_as_xyz
 1  'x, y, z'
loop_
 _atom_site_type_symbol
 _atom_site_label
 _atom_site_symmetry_multiplicity
 _atom_site_fract_x
 _atom_site_fract_y
 _atom_site_fract_z
 _atom_site_fract_occupancy
 F  F1  1  0.73397  -0.00065  0.06198  1
 F  F2  1  0.26611  0.15714  0.90388  1
 F  F3  1  0.26603  0.49935  0.93802  1
 F  F4  1  0.73411  0.49939  0.56217  1
 F  F5  1  0.26620  0.34530  0.40774  1
 F  F6  1  0.26607  0.84527  0.90756  1
 F  F7  1  0.26614  0.65714  0.40400  1
 F  F8  1  0.73393  0.34527  0.09244  1
 F  F9  1  0.73380  0.84530  0.59226  1
 F  F10  1  0.73389  0.65714  0.09612  1
 F  F11  1  0.73386  0.15714  0.59600  1
 F  F12  1  0.26589  -0.00061  0.43783  1
 Li  Li1  1  -0.00007  0.16729  0.24999  1
 Li  Li2  1  0.49982  0.83394  0.24990  1
 Li  Li3  1  0.50018  0.33394  0.75010  1
 Li  Li4  1  0.00007  0.66729  0.75001  1
 V  V1  1  0.50005  0.50062  0.25009  1
 V  V2  1  0.49995  0.00062  0.74991  1
