CIF file written using JARVIS-Tools package.
data_ScClO
_symmetry_space_group_name_H-M  'P4/nmm'
_cell_length_a       4.28639
_cell_length_b       4.28639
_cell_length_c       5.5823
_cell_angle_alpha    90
_cell_angle_beta     90
_cell_angle_gamma    90

_symmetry_Int_Tables_number  129
_chemical_formula_structural  ScClO
_chemical_formula_sum  Sc2Cl2O2
_cell_volume  102.56449940183356
_cell_formula_units_Z  2
loop_
  _symmetry_equiv_pos_site_id
 _symmetry_equiv_pos_as_xyz
 1  'x, y, z'
loop_
 _atom_site_type_symbol
 _atom_site_label
 _atom_site_symmetry_multiplicity
 _atom_site_fract_x
 _atom_site_fract_y
 _atom_site_fract_z
 _atom_site_fract_occupancy
 Cl  Cl1  1  0.25000  0.75000  0.00000  1
 Cl  Cl2  1  0.75000  0.25000  0.00000  1
 O  O1  1  0.75000  0.75000  0.60204  1
 O  O2  1  0.25000  0.25000  0.39796  1
 Sc  Sc1  1  0.75000  0.75000  0.28153  1
 Sc  Sc2  1  0.25000  0.25000  0.71847  1
