CIF file written using JARVIS-Tools package.
data_TlGeBr3
_symmetry_space_group_name_H-M  'Pnma'
_cell_length_a       4.18849
_cell_length_b       9.34166
_cell_length_c       15.5804
_cell_angle_alpha    90
_cell_angle_beta     90
_cell_angle_gamma    90

_symmetry_Int_Tables_number  62
_chemical_formula_structural  TlGeBr3
_chemical_formula_sum  Tl4Ge4Br2
_cell_volume  609.621712162514
_cell_formula_units_Z  4
loop_
  _symmetry_equiv_pos_site_id
 _symmetry_equiv_pos_as_xyz
 1  'x, y, z'
loop_
 _atom_site_type_symbol
 _atom_site_label
 _atom_site_symmetry_multiplicity
 _atom_site_fract_x
 _atom_site_fract_y
 _atom_site_fract_z
 _atom_site_fract_occupancy
 Br  Br1  1  0.25000  0.29894  0.21020  1
 Br  Br2  1  0.75000  0.33648  0.99590  1
 Br  Br3  1  0.25000  0.79894  0.28980  1
 Br  Br4  1  0.75000  0.83648  0.50410  1
 Br  Br5  1  0.25000  0.16352  0.49590  1
 Br  Br6  1  0.25000  0.66352  0.00410  1
 Br  Br7  1  0.75000  0.97445  0.11665  1
 Br  Br8  1  0.25000  0.52555  0.61665  1
 Br  Br9  1  0.75000  0.47445  0.38335  1
 Br  Br10  1  0.75000  0.20106  0.71020  1
 Br  Br11  1  0.75000  0.70106  0.78980  1
 Br  Br12  1  0.25000  0.02555  0.88335  1
 Ge  Ge1  1  0.75000  0.33716  0.56204  1
 Ge  Ge2  1  0.25000  0.66284  0.43796  1
 Ge  Ge3  1  0.75000  0.83716  0.93796  1
 Ge  Ge4  1  0.25000  0.16284  0.06204  1
 Tl  Tl1  1  0.25000  0.41802  0.82859  1
 Tl  Tl2  1  0.75000  0.58198  0.17141  1
 Tl  Tl3  1  0.25000  0.91802  0.67141  1
 Tl  Tl4  1  0.75000  0.08198  0.32859  1
