CIF file written using JARVIS-Tools package.
data_VF4
_symmetry_space_group_name_H-M  'P2_1/c'
_cell_length_a       7.2436
_cell_length_b       4.83955
_cell_length_c       7.30898
_cell_angle_alpha    90
_cell_angle_beta     103.26
_cell_angle_gamma    90

_symmetry_Int_Tables_number  14
_chemical_formula_structural  VF4
_chemical_formula_sum  V4F6
_cell_volume  249.39161274782012
_cell_formula_units_Z  4
loop_
  _symmetry_equiv_pos_site_id
 _symmetry_equiv_pos_as_xyz
 1  'x, y, z'
loop_
 _atom_site_type_symbol
 _atom_site_label
 _atom_site_symmetry_multiplicity
 _atom_site_fract_x
 _atom_site_fract_y
 _atom_site_fract_z
 _atom_site_fract_occupancy
 F  F1  1  0.58968  0.57004  0.68824  1
 F  F2  1  0.04422  0.94376  0.71147  1
 F  F3  1  0.04422  0.55624  0.21147  1
 F  F4  1  0.18788  0.37800  0.55853  1
 F  F5  1  0.30431  0.56445  0.91637  1
 F  F6  1  0.18788  0.12200  0.05853  1
 F  F7  1  0.95578  0.44376  0.78853  1
 F  F8  1  0.30431  0.93555  0.41637  1
 F  F9  1  0.41032  0.42996  0.31176  1
 F  F10  1  0.95578  0.05624  0.28853  1
 F  F11  1  0.58968  0.92996  0.18824  1
 F  F12  1  0.69569  0.06445  0.58363  1
 F  F13  1  0.81212  0.87800  0.94147  1
 F  F14  1  0.69569  0.43555  0.08363  1
 F  F15  1  0.81212  0.62200  0.44147  1
 F  F16  1  0.41032  0.07004  0.81176  1
 V  V1  1  0.79471  0.74417  0.18582  1
 V  V2  1  0.79471  0.75583  0.68582  1
 V  V3  1  0.20529  0.24417  0.31418  1
 V  V4  1  0.20529  0.25583  0.81418  1
