CIF file written using JARVIS-Tools package.
data_LiMn2O4
_symmetry_space_group_name_H-M  'R3m'
_cell_length_a       5.75373
_cell_length_b       5.75373
_cell_length_c       5.75373
_cell_angle_alpha    59.3118
_cell_angle_beta     59.3119
_cell_angle_gamma    59.3118

_symmetry_Int_Tables_number  160
_chemical_formula_structural  LiMn2O4
_chemical_formula_sum  Li2Mn4O8
_cell_volume  132.5787479062443
_cell_formula_units_Z  2
loop_
  _symmetry_equiv_pos_site_id
 _symmetry_equiv_pos_as_xyz
 1  'x, y, z'
loop_
 _atom_site_type_symbol
 _atom_site_label
 _atom_site_symmetry_multiplicity
 _atom_site_fract_x
 _atom_site_fract_y
 _atom_site_fract_z
 _atom_site_fract_occupancy
 Li  Li1  1  0.12134  0.12134  0.12134  1
 Li  Li2  1  0.49629  0.49629  0.49629  1
 Mn  Mn1  1  0.00824  0.49878  0.49878  1
 Mn  Mn2  1  0.49878  0.49878  0.00824  1
 Mn  Mn3  1  0.49878  0.00824  0.49878  1
 Mn  Mn4  1  0.87892  0.87892  0.87892  1
 O  O1  1  0.26127  0.26127  0.26127  1
 O  O2  1  0.25204  0.71559  0.25204  1
 O  O3  1  0.25204  0.25204  0.71559  1
 O  O4  1  0.71559  0.25204  0.25204  1
 O  O5  1  0.26598  0.75213  0.75213  1
 O  O6  1  0.75213  0.75213  0.26598  1
 O  O7  1  0.75213  0.26598  0.75213  1
 O  O8  1  0.74649  0.74649  0.74649  1
