CIF file written using JARVIS-Tools package.
data_HC
_symmetry_space_group_name_H-M  'C2/m'
_cell_length_a       2.46777
_cell_length_b       3.81361
_cell_length_c       3.81361
_cell_angle_alpha    95.2273
_cell_angle_beta     89.8848
_cell_angle_gamma    89.8848

_symmetry_Int_Tables_number  12
_chemical_formula_structural  HC
_chemical_formula_sum  H2C2
_cell_volume  35.74073702429471
_cell_formula_units_Z  2
loop_
  _symmetry_equiv_pos_site_id
 _symmetry_equiv_pos_as_xyz
 1  'x, y, z'
loop_
 _atom_site_type_symbol
 _atom_site_label
 _atom_site_symmetry_multiplicity
 _atom_site_fract_x
 _atom_site_fract_y
 _atom_site_fract_z
 _atom_site_fract_occupancy
 C  C1  1  0.25037  0.43657  0.43657  1
 C  C2  1  0.74963  0.56343  0.56343  1
 H  H1  1  0.25170  0.22318  0.22318  1
 H  H2  1  0.74830  0.77682  0.77682  1
