CIF file written using JARVIS-Tools package.
data_Li4V3CrO8
_symmetry_space_group_name_H-M  'P-1'
_cell_length_a       5.12133
_cell_length_b       5.05851
_cell_length_c       5.84802
_cell_angle_alpha    90.0743
_cell_angle_beta     106.584
_cell_angle_gamma    99.4317

_symmetry_Int_Tables_number  2
_chemical_formula_structural  Li4V3CrO8
_chemical_formula_sum  Li4V3CrO8
_cell_volume  143.04981929732907
_cell_formula_units_Z  1
loop_
  _symmetry_equiv_pos_site_id
 _symmetry_equiv_pos_as_xyz
 1  'x, y, z'
loop_
 _atom_site_type_symbol
 _atom_site_label
 _atom_site_symmetry_multiplicity
 _atom_site_fract_x
 _atom_site_fract_y
 _atom_site_fract_z
 _atom_site_fract_occupancy
 Cr  Cr1  1  0.50000  0.25000  0.87500  1
 Li  Li1  1  0.99622  0.00237  0.99787  1
 Li  Li2  1  -0.00474  0.49725  0.24652  1
 Li  Li3  1  0.00474  0.00275  0.50347  1
 Li  Li4  1  0.00378  0.49763  0.75213  1
 O  O1  1  0.73059  0.12527  0.18016  1
 O  O2  1  0.26935  0.37644  0.06507  1
 O  O3  1  0.74218  0.62081  0.43575  1
 O  O4  1  0.25782  0.87919  0.31425  1
 O  O5  1  0.73064  0.12356  0.68492  1
 O  O6  1  0.26941  0.37473  0.56984  1
 O  O7  1  0.72268  0.62022  0.93051  1
 O  O8  1  0.27732  0.87978  0.81949  1
 V  V1  1  0.50016  0.75078  0.13355  1
 V  V2  1  0.50000  0.25000  0.37500  1
 V  V3  1  0.49984  0.74922  0.61646  1
