CIF file written using JARVIS-Tools package.
data_SNCl
_symmetry_space_group_name_H-M  'P2_1/m'
_cell_length_a       5.48937
_cell_length_b       11.1298
_cell_length_c       6.03198
_cell_angle_alpha    90
_cell_angle_beta     99.4137
_cell_angle_gamma    90

_symmetry_Int_Tables_number  11
_chemical_formula_structural  SNCl
_chemical_formula_sum  S6N6Cl6
_cell_volume  363.56577833842107
_cell_formula_units_Z  6
loop_
  _symmetry_equiv_pos_site_id
 _symmetry_equiv_pos_as_xyz
 1  'x, y, z'
loop_
 _atom_site_type_symbol
 _atom_site_label
 _atom_site_symmetry_multiplicity
 _atom_site_fract_x
 _atom_site_fract_y
 _atom_site_fract_z
 _atom_site_fract_occupancy
 Cl  Cl1  1  0.49041  0.25000  0.82993  1
 Cl  Cl2  1  0.30302  0.57403  0.66050  1
 Cl  Cl3  1  0.69698  0.07403  0.33950  1
 Cl  Cl4  1  0.69698  0.42597  0.33950  1
 Cl  Cl5  1  0.30302  0.92597  0.66050  1
 Cl  Cl6  1  0.50959  0.75000  0.17007  1
 N  N1  1  0.02458  0.86966  0.04667  1
 N  N2  1  0.97542  0.36966  0.95333  1
 N  N3  1  0.97542  0.13034  0.95333  1
 N  N4  1  0.02458  0.63034  0.04667  1
 N  N5  1  0.11618  0.25000  0.33302  1
 N  N6  1  0.88382  0.75000  0.66698  1
 S  S1  1  0.87837  0.25000  0.81655  1
 S  S2  1  0.12163  0.75000  0.18345  1
 S  S3  1  0.94834  0.62144  0.77959  1
 S  S4  1  0.05166  0.12144  0.22041  1
 S  S5  1  0.05166  0.37856  0.22041  1
 S  S6  1  0.94834  0.87856  0.77959  1
