CIF file written using JARVIS-Tools package.
data_Li2Mn3F8
_symmetry_space_group_name_H-M  'R-3m'
_cell_length_a       6.28315
_cell_length_b       6.21537
_cell_length_c       6.28315
_cell_angle_alpha    120.362
_cell_angle_beta     60
_cell_angle_gamma    120.362

_symmetry_Int_Tables_number  166
_chemical_formula_structural  Li2Mn3F8
_chemical_formula_sum  Li2Mn3F8
_cell_volume  172.5490916235675
_cell_formula_units_Z  1
loop_
  _symmetry_equiv_pos_site_id
 _symmetry_equiv_pos_as_xyz
 1  'x, y, z'
loop_
 _atom_site_type_symbol
 _atom_site_label
 _atom_site_symmetry_multiplicity
 _atom_site_fract_x
 _atom_site_fract_y
 _atom_site_fract_z
 _atom_site_fract_occupancy
 F  F1  1  0.09359  0.77488  0.09359  1
 F  F2  1  0.09359  0.77488  0.58770  1
 F  F3  1  0.58770  0.77488  0.09359  1
 F  F4  1  0.40438  0.21313  0.40438  1
 F  F5  1  0.59562  0.78687  0.59562  1
 F  F6  1  0.41230  0.22512  0.90641  1
 F  F7  1  0.90641  0.22512  0.41230  1
 F  F8  1  0.90641  0.22512  0.90641  1
 Li  Li1  1  0.11671  0.35012  0.11671  1
 Li  Li2  1  0.88329  0.64988  0.88329  1
 Mn  Mn1  1  0.00000  0.00000  0.50000  1
 Mn  Mn2  1  0.50000  0.00000  0.00000  1
 Mn  Mn3  1  0.50000  0.00000  0.50000  1
