CIF file written using JARVIS-Tools package.
data_AlTeI7
_symmetry_space_group_name_H-M  'Pc'
_cell_length_a       7.77278
_cell_length_b       7.4045
_cell_length_c       14.4293
_cell_angle_alpha    90
_cell_angle_beta     103.148
_cell_angle_gamma    90

_symmetry_Int_Tables_number  7
_chemical_formula_structural  AlTeI7
_chemical_formula_sum  Al2Te2I4
_cell_volume  808.6850107180352
_cell_formula_units_Z  2
loop_
  _symmetry_equiv_pos_site_id
 _symmetry_equiv_pos_as_xyz
 1  'x, y, z'
loop_
 _atom_site_type_symbol
 _atom_site_label
 _atom_site_symmetry_multiplicity
 _atom_site_fract_x
 _atom_site_fract_y
 _atom_site_fract_z
 _atom_site_fract_occupancy
 Al  Al1  1  0.69430  0.99860  0.34987  1
 Al  Al2  1  0.69430  0.00140  0.84987  1
 I  I1  1  0.95079  0.36543  0.63403  1
 I  I2  1  0.27614  0.42303  0.43287  1
 I  I3  1  0.21727  0.15515  0.11244  1
 I  I4  1  0.21727  0.84485  0.61244  1
 I  I5  1  0.95079  0.63457  0.13403  1
 I  I6  1  0.00890  0.06777  0.82756  1
 I  I7  1  0.66622  0.11684  0.01363  1
 I  I8  1  0.66622  0.88316  0.51363  1
 I  I9  1  0.65188  0.66013  0.82767  1
 I  I10  1  0.65188  0.33987  0.32767  1
 I  I11  1  0.46973  0.17847  0.72484  1
 I  I12  1  0.46973  0.82153  0.22484  1
 I  I13  1  0.27614  0.57697  0.93287  1
 I  I14  1  0.00890  0.93223  0.32756  1
 Te  Te1  1  0.00265  0.40164  0.99257  1
 Te  Te2  1  0.00265  0.59836  0.49257  1
