CIF file written using JARVIS-Tools package.
data_Li2MnF6
_symmetry_space_group_name_H-M  'Pc'
_cell_length_a       4.97693
_cell_length_b       5.17409
_cell_length_c       8.91768
_cell_angle_alpha    90
_cell_angle_beta     124.482
_cell_angle_gamma    90

_symmetry_Int_Tables_number  7
_chemical_formula_structural  Li2MnF6
_chemical_formula_sum  Li4Mn2F2
_cell_volume  189.29296662198024
_cell_formula_units_Z  2
loop_
  _symmetry_equiv_pos_site_id
 _symmetry_equiv_pos_as_xyz
 1  'x, y, z'
loop_
 _atom_site_type_symbol
 _atom_site_label
 _atom_site_symmetry_multiplicity
 _atom_site_fract_x
 _atom_site_fract_y
 _atom_site_fract_z
 _atom_site_fract_occupancy
 F  F1  1  0.08003  0.06292  0.42859  1
 F  F2  1  0.36768  0.19843  0.23395  1
 F  F3  1  0.08003  0.93708  0.92859  1
 F  F4  1  0.89289  0.53157  0.07401  1
 F  F5  1  0.25256  0.42908  0.95340  1
 F  F6  1  0.75100  0.93080  0.56204  1
 F  F7  1  0.65536  0.68988  0.26894  1
 F  F8  1  0.36768  0.80157  0.73395  1
 F  F9  1  0.65536  0.31012  0.76894  1
 F  F10  1  0.75100  0.06920  0.06204  1
 F  F11  1  0.25256  0.57092  0.45340  1
 F  F12  1  0.89289  0.46843  0.57401  1
 Li  Li1  1  0.74047  0.68925  0.73170  1
 Li  Li2  1  0.49285  0.76155  -0.00431  1
 Li  Li3  1  0.74047  0.31075  0.23170  1
 Li  Li4  1  0.49285  0.23845  0.49569  1
 Mn  Mn1  1  0.99842  0.75742  0.50109  1
 Mn  Mn2  1  0.99842  0.24258  0.00109  1
