CIF file written using JARVIS-Tools package.
data_LiMnC2O6
_symmetry_space_group_name_H-M  'R-3'
_cell_length_a       4.64176
_cell_length_b       5.63739
_cell_length_c       4.64176
_cell_angle_alpha    65.6886
_cell_angle_beta     120
_cell_angle_gamma    114.311

_symmetry_Int_Tables_number  148
_chemical_formula_structural  LiMnC2O6
_chemical_formula_sum  LiMnC2O6
_cell_volume  92.5438374470167
_cell_formula_units_Z  1
loop_
  _symmetry_equiv_pos_site_id
 _symmetry_equiv_pos_as_xyz
 1  'x, y, z'
loop_
 _atom_site_type_symbol
 _atom_site_label
 _atom_site_symmetry_multiplicity
 _atom_site_fract_x
 _atom_site_fract_y
 _atom_site_fract_z
 _atom_site_fract_occupancy
 C  C1  1  0.24579  0.73736  0.75421  1
 C  C2  1  0.75421  0.26264  0.24579  1
 Li  Li1  1  0.00000  0.00000  0.00000  1
 Mn  Mn1  1  0.50000  0.50000  0.50000  1
 O  O1  1  0.03844  0.26118  0.25849  1
 O  O2  1  0.51878  0.73882  0.03844  1
 O  O3  1  0.25849  0.73882  0.48122  1
 O  O4  1  0.74151  0.26118  0.51878  1
 O  O5  1  0.48122  0.26118  0.96156  1
 O  O6  1  0.96156  0.73882  0.74151  1
