CIF file written using JARVIS-Tools package.
data_VPCl9
_symmetry_space_group_name_H-M  'Cmme'
_cell_length_a       5.95284
_cell_length_b       10.1058
_cell_length_c       10.1058
_cell_angle_alpha    108.708
_cell_angle_beta     90
_cell_angle_gamma    90

_symmetry_Int_Tables_number  67
_chemical_formula_structural  VPCl9
_chemical_formula_sum  V2P2Cl8
_cell_volume  575.830024155275
_cell_formula_units_Z  2
loop_
  _symmetry_equiv_pos_site_id
 _symmetry_equiv_pos_as_xyz
 1  'x, y, z'
loop_
 _atom_site_type_symbol
 _atom_site_label
 _atom_site_symmetry_multiplicity
 _atom_site_fract_x
 _atom_site_fract_y
 _atom_site_fract_z
 _atom_site_fract_occupancy
 Cl  Cl1  1  0.19430  0.69503  0.49547  1
 Cl  Cl2  1  0.23282  0.70207  0.13979  1
 Cl  Cl3  1  0.76718  0.86021  0.29793  1
 Cl  Cl4  1  0.76718  0.20207  0.63979  1
 Cl  Cl5  1  0.23282  0.36021  0.79793  1
 Cl  Cl6  1  0.74851  0.53113  0.96887  1
 Cl  Cl7  1  0.25149  0.03113  0.46887  1
 Cl  Cl8  1  0.36651  0.67287  0.82713  1
 Cl  Cl9  1  0.63353  0.88941  0.61059  1
 Cl  Cl10  1  0.36647  0.38941  0.11059  1
 Cl  Cl11  1  0.63349  0.17287  0.32713  1
 Cl  Cl12  1  0.80570  0.50453  0.30497  1
 Cl  Cl13  1  0.80570  0.19503  0.99547  1
 Cl  Cl14  1  0.19430  0.00453  0.80497  1
 Cl  Cl15  1  0.19425  0.05776  0.13279  1
 Cl  Cl16  1  0.80575  0.86721  0.94224  1
 Cl  Cl17  1  0.80575  0.55776  0.63279  1
 Cl  Cl18  1  0.19425  0.36721  0.44224  1
 P  P1  1  0.00000  0.53113  0.46887  1
 P  P2  1  0.00000  0.03113  0.96887  1
 V  V1  1  0.38030  0.53114  0.96886  1
 V  V2  1  0.61970  0.03114  0.46886  1
