CIF file written using JARVIS-Tools package.
data_Li3Mn5OF11
_symmetry_space_group_name_H-M  'P1'
_cell_length_a       5.3138
_cell_length_b       5.58844
_cell_length_c       9.38543
_cell_angle_alpha    71.7836
_cell_angle_beta     105.476
_cell_angle_gamma    117.747

_symmetry_Int_Tables_number  1
_chemical_formula_structural  Li3Mn5OF11
_chemical_formula_sum  Li3Mn5OF
_cell_volume  231.84570998221895
_cell_formula_units_Z  1
loop_
  _symmetry_equiv_pos_site_id
 _symmetry_equiv_pos_as_xyz
 1  'x, y, z'
loop_
 _atom_site_type_symbol
 _atom_site_label
 _atom_site_symmetry_multiplicity
 _atom_site_fract_x
 _atom_site_fract_y
 _atom_site_fract_z
 _atom_site_fract_occupancy
 F  F1  1  0.43880  0.87365  0.37286  1
 F  F2  1  0.48147  0.52775  0.71430  1
 F  F3  1  0.01854  0.97620  0.77312  1
 F  F4  1  0.57900  0.13283  0.61495  1
 F  F5  1  0.92277  0.38003  0.87837  1
 F  F6  1  0.53191  0.46738  0.28815  1
 F  F7  1  0.43919  0.21673  0.02148  1
 F  F8  1  0.04181  0.27772  0.47739  1
 F  F9  1  0.05244  0.59895  0.12902  1
 F  F10  1  0.99401  0.03397  0.22777  1
 F  F11  1  0.98048  0.73471  0.53118  1
 Li  Li1  1  0.21782  0.36702  0.07832  1
 Li  Li2  1  0.71669  0.87408  0.55601  1
 Li  Li3  1  0.29472  0.15290  0.42582  1
 Mn  Mn1  1  0.54339  0.88740  0.16877  1
 Mn  Mn2  1  0.03773  0.39414  0.67862  1
 Mn  Mn3  1  0.97673  0.61713  0.32998  1
 Mn  Mn4  1  0.46033  0.07159  0.82244  1
 Mn  Mn5  1  0.75259  0.64185  0.93111  1
 O  O1  1  0.51958  0.77396  0.98034  1
