CIF file written using JARVIS-Tools package.
data_Te2W2SeS
_symmetry_space_group_name_H-M  'P3m1'
_cell_length_a       3.3989
_cell_length_b       3.39891
_cell_length_c       38.8391
_cell_angle_alpha    90.0004
_cell_angle_beta     90
_cell_angle_gamma    120

_symmetry_Int_Tables_number  156
_chemical_formula_structural  Te2W2SeS
_chemical_formula_sum  Te4W4Se2S2
_cell_volume  388.5785092553008
_cell_formula_units_Z  2
loop_
  _symmetry_equiv_pos_site_id
 _symmetry_equiv_pos_as_xyz
 1  'x, y, z'
loop_
 _atom_site_type_symbol
 _atom_site_label
 _atom_site_symmetry_multiplicity
 _atom_site_fract_x
 _atom_site_fract_y
 _atom_site_fract_z
 _atom_site_fract_occupancy
 S  S1  1  0.33336  0.66671  0.32067  1
 S  S2  1  0.33336  0.66672  0.24292  1
 Se  Se1  1  0.66664  0.33328  0.05134  1
 Se  Se2  1  0.66665  0.33329  0.13659  1
 Te  Te1  1  0.33336  0.66673  0.70606  1
 Te  Te2  1  0.66665  0.33329  0.42097  1
 Te  Te3  1  0.66664  0.33329  0.51813  1
 Te  Te4  1  0.33335  0.66671  0.60908  1
 W  W1  1  0.33331  0.66661  0.09394  1
 W  W2  1  0.33331  0.66662  0.46963  1
 W  W3  1  0.66669  0.33337  0.28181  1
 W  W4  1  0.66669  0.33337  0.65760  1
