CIF file written using JARVIS-Tools package.
data_TaCrO4
_symmetry_space_group_name_H-M  'I4_1md'
_cell_length_a       5.57388
_cell_length_b       5.57388
_cell_length_c       5.57388
_cell_angle_alpha    72.9279
_cell_angle_beta     107.072
_cell_angle_gamma    65.6161

_symmetry_Int_Tables_number  109
_chemical_formula_structural  TaCrO4
_chemical_formula_sum  Ta2Cr2O8
_cell_volume  132.56443695036532
_cell_formula_units_Z  2
loop_
  _symmetry_equiv_pos_site_id
 _symmetry_equiv_pos_as_xyz
 1  'x, y, z'
loop_
 _atom_site_type_symbol
 _atom_site_label
 _atom_site_symmetry_multiplicity
 _atom_site_fract_x
 _atom_site_fract_y
 _atom_site_fract_z
 _atom_site_fract_occupancy
 Cr  Cr1  1  0.75054  0.74946  0.50000  1
 Cr  Cr2  1  0.50054  0.49946  0.00000  1
 O  O1  1  0.55307  0.25134  0.80441  1
 O  O2  1  0.04544  0.75440  0.79983  1
 O  O3  1  -0.00134  0.30575  0.69559  1
 O  O4  1  0.49560  0.80423  0.70017  1
 O  O5  1  -0.00134  0.69693  0.30441  1
 O  O6  1  0.49560  0.20456  0.29983  1
 O  O7  1  0.94425  0.25134  0.19559  1
 O  O8  1  0.44577  0.75440  0.20017  1
 Ta  Ta1  1  0.26094  0.23906  0.50000  1
 Ta  Ta2  1  0.01094  0.98906  0.00000  1
