CIF file written using JARVIS-Tools package.
data_Li4CrO5
_symmetry_space_group_name_H-M  'C2/c'
_cell_length_a       5.19017
_cell_length_b       5.19017
_cell_length_c       7.7557
_cell_angle_alpha    83.1136
_cell_angle_beta     96.8864
_cell_angle_gamma    112.767

_symmetry_Int_Tables_number  15
_chemical_formula_structural  Li4CrO5
_chemical_formula_sum  Li8Cr2O0
_cell_volume  190.63635664723412
_cell_formula_units_Z  2
loop_
  _symmetry_equiv_pos_site_id
 _symmetry_equiv_pos_as_xyz
 1  'x, y, z'
loop_
 _atom_site_type_symbol
 _atom_site_label
 _atom_site_symmetry_multiplicity
 _atom_site_fract_x
 _atom_site_fract_y
 _atom_site_fract_z
 _atom_site_fract_occupancy
 Cr  Cr1  1  0.82984  0.82984  0.75000  1
 Cr  Cr2  1  0.17016  0.17016  0.25000  1
 Li  Li1  1  0.63681  0.03379  0.35182  1
 Li  Li2  1  0.96621  0.36319  0.85182  1
 Li  Li3  1  0.77834  0.56226  0.44490  1
 Li  Li4  1  0.36319  0.96621  0.64818  1
 Li  Li5  1  0.56226  0.77834  0.05510  1
 Li  Li6  1  0.22166  0.43774  0.55510  1
 Li  Li7  1  0.03379  0.63681  0.14818  1
 Li  Li8  1  0.43774  0.22166  0.94490  1
 O  O1  1  0.41077  0.23179  0.43019  1
 O  O2  1  0.64688  0.01480  0.84116  1
 O  O3  1  0.01480  0.64688  0.65884  1
 O  O4  1  0.35312  0.98520  0.15884  1
 O  O5  1  0.58923  0.76821  0.56981  1
 O  O6  1  0.23179  0.41077  0.06981  1
 O  O7  1  0.13238  0.13238  0.75000  1
 O  O8  1  0.86762  0.86762  0.25000  1
 O  O9  1  0.76821  0.58923  0.93019  1
 O  O10  1  0.98520  0.35312  0.34116  1
