CIF file written using JARVIS-Tools package.
data_VOF
_symmetry_space_group_name_H-M  'R-3m'
_cell_length_a       3.26465
_cell_length_b       7.27887
_cell_length_c       3.26465
_cell_angle_alpha    102.959
_cell_angle_beta     60.0001
_cell_angle_gamma    102.959

_symmetry_Int_Tables_number  166
_chemical_formula_structural  VOF
_chemical_formula_sum  V2O2F2
_cell_volume  64.89264387104377
_cell_formula_units_Z  2
loop_
  _symmetry_equiv_pos_site_id
 _symmetry_equiv_pos_as_xyz
 1  'x, y, z'
loop_
 _atom_site_type_symbol
 _atom_site_label
 _atom_site_symmetry_multiplicity
 _atom_site_fract_x
 _atom_site_fract_y
 _atom_site_fract_z
 _atom_site_fract_occupancy
 F  F1  1  0.11338  0.34014  0.11338  1
 F  F2  1  0.88662  0.65986  0.88662  1
 O  O1  1  0.29623  0.88870  0.29623  1
 O  O2  1  0.70377  0.11130  0.70377  1
 V  V1  1  0.60670  0.82009  0.60670  1
 V  V2  1  0.39330  0.17991  0.39330  1
