CIF file written using JARVIS-Tools package.
data_NiP2S6
_symmetry_space_group_name_H-M  'C2'
_cell_length_a       5.76352
_cell_length_b       5.76533
_cell_length_c       6.60464
_cell_angle_alpha    81.9073
_cell_angle_beta     106.358
_cell_angle_gamma    119.99

_symmetry_Int_Tables_number  5
_chemical_formula_structural  NiP2S6
_chemical_formula_sum  NiP2S6
_cell_volume  182.38582868954921
_cell_formula_units_Z  1
loop_
  _symmetry_equiv_pos_site_id
 _symmetry_equiv_pos_as_xyz
 1  'x, y, z'
loop_
 _atom_site_type_symbol
 _atom_site_label
 _atom_site_symmetry_multiplicity
 _atom_site_fract_x
 _atom_site_fract_y
 _atom_site_fract_z
 _atom_site_fract_occupancy
 Ni  Ni1  1  0.33326  0.66653  0.00000  1
 P  P1  1  0.05585  0.00030  0.17105  1
 P  P2  1  0.94445  0.00030  0.82895  1
 S  S1  1  0.10367  0.66778  0.24167  1
 S  S2  1  0.25380  0.97377  0.75740  1
 S  S3  1  0.56412  0.66778  0.75833  1
 S  S4  1  0.40992  0.35808  0.24585  1
 S  S5  1  0.94816  0.35808  0.75415  1
 S  S6  1  0.71997  0.97377  0.24260  1
