CIF file written using JARVIS-Tools package.
data_Al2PdCl8
_symmetry_space_group_name_H-M  'P2_1/c'
_cell_length_a       6.53692
_cell_length_b       7.29005
_cell_length_c       12.5011
_cell_angle_alpha    90
_cell_angle_beta     95.5805
_cell_angle_gamma    90

_symmetry_Int_Tables_number  14
_chemical_formula_structural  Al2PdCl8
_chemical_formula_sum  Al4Pd2Cl6
_cell_volume  592.9114691392912
_cell_formula_units_Z  2
loop_
  _symmetry_equiv_pos_site_id
 _symmetry_equiv_pos_as_xyz
 1  'x, y, z'
loop_
 _atom_site_type_symbol
 _atom_site_label
 _atom_site_symmetry_multiplicity
 _atom_site_fract_x
 _atom_site_fract_y
 _atom_site_fract_z
 _atom_site_fract_occupancy
 Al  Al1  1  0.34273  0.70981  0.10122  1
 Al  Al2  1  0.65727  0.20981  0.39878  1
 Al  Al3  1  0.65727  0.29019  0.89878  1
 Al  Al4  1  0.34273  0.79019  0.60122  1
 Cl  Cl1  1  0.14600  0.72713  0.94523  1
 Cl  Cl2  1  0.85400  0.22713  0.55477  1
 Cl  Cl3  1  0.85400  0.27287  0.05477  1
 Cl  Cl4  1  0.14600  0.77287  0.44523  1
 Cl  Cl5  1  0.34369  0.29775  0.92809  1
 Cl  Cl6  1  0.76059  0.48664  0.34748  1
 Cl  Cl7  1  0.23941  0.98664  0.15252  1
 Cl  Cl8  1  0.23941  0.51336  0.65252  1
 Cl  Cl9  1  0.74918  0.00681  0.29355  1
 Cl  Cl10  1  0.76059  0.01336  0.84748  1
 Cl  Cl11  1  0.74918  0.49319  0.79355  1
 Cl  Cl12  1  0.25082  0.99319  0.70645  1
 Cl  Cl13  1  0.65631  0.70225  0.07191  1
 Cl  Cl14  1  0.34369  0.20225  0.42809  1
 Cl  Cl15  1  0.25082  0.50681  0.20645  1
 Cl  Cl16  1  0.65631  0.79775  0.57191  1
 Pd  Pd1  1  -0.00000  0.50000  0.50000  1
 Pd  Pd2  1  0.00000  0.00000  0.00000  1
