CIF file written using JARVIS-Tools package.
data_Li2V2F7
_symmetry_space_group_name_H-M  'Imma'
_cell_length_a       6.89453
_cell_length_b       7.22537
_cell_length_c       7.22537
_cell_angle_alpha    90.8482
_cell_angle_beta     61.5034
_cell_angle_gamma    61.5035

_symmetry_Int_Tables_number  74
_chemical_formula_structural  Li2V2F7
_chemical_formula_sum  Li4V4F4
_cell_volume  263.9534844607253
_cell_formula_units_Z  2
loop_
  _symmetry_equiv_pos_site_id
 _symmetry_equiv_pos_as_xyz
 1  'x, y, z'
loop_
 _atom_site_type_symbol
 _atom_site_label
 _atom_site_symmetry_multiplicity
 _atom_site_fract_x
 _atom_site_fract_y
 _atom_site_fract_z
 _atom_site_fract_occupancy
 F  F1  1  0.25160  0.08575  0.32958  1
 F  F2  1  0.15746  0.75000  0.25000  1
 F  F3  1  0.76503  0.91511  0.08489  1
 F  F4  1  0.23497  0.08489  0.91511  1
 F  F5  1  0.33307  0.32958  0.08575  1
 F  F6  1  0.74840  0.91425  0.67042  1
 F  F7  1  0.25160  0.82958  0.58575  1
 F  F8  1  0.23497  0.41511  0.58489  1
 F  F9  1  0.76503  0.58489  0.41511  1
 F  F10  1  0.33307  0.58575  0.82958  1
 F  F11  1  0.84254  0.25000  0.75000  1
 F  F12  1  0.66693  0.67042  0.91425  1
 F  F13  1  0.74840  0.17042  0.41425  1
 F  F14  1  0.66693  0.41425  0.17042  1
 Li  Li1  1  0.50000  -0.00000  0.50000  1
 Li  Li2  1  0.00000  0.00000  0.00000  1
 Li  Li3  1  -0.00000  0.50000  0.50000  1
 Li  Li4  1  -0.00000  0.50000  -0.00000  1
 V  V1  1  0.00000  -0.00000  0.50000  1
 V  V2  1  0.50000  -0.00000  -0.00000  1
 V  V3  1  0.50000  0.50000  0.50000  1
 V  V4  1  0.50000  0.50000  -0.00000  1
