CIF file written using JARVIS-Tools package.
data_SmB2Ru2
_symmetry_space_group_name_H-M  'Fddd'
_cell_length_a       5.60007
_cell_length_b       5.60007
_cell_length_c       5.93756
_cell_angle_alpha    108.929
_cell_angle_beta     108.929
_cell_angle_gamma    108.186

_symmetry_Int_Tables_number  70
_chemical_formula_structural  SmB2Ru2
_chemical_formula_sum  Sm2B4Ru4
_cell_volume  147.37843883718028
_cell_formula_units_Z  2
loop_
  _symmetry_equiv_pos_site_id
 _symmetry_equiv_pos_as_xyz
 1  'x, y, z'
loop_
 _atom_site_type_symbol
 _atom_site_label
 _atom_site_symmetry_multiplicity
 _atom_site_fract_x
 _atom_site_fract_y
 _atom_site_fract_z
 _atom_site_fract_occupancy
 B  B1  1  0.68523  0.31477  0.00000  1
 B  B2  1  0.31477  0.68523  0.00000  1
 B  B3  1  0.93523  0.06477  0.50000  1
 B  B4  1  0.56477  0.43523  0.50000  1
 Ru  Ru1  1  0.61238  0.11238  0.22475  1
 Ru  Ru2  1  0.63762  0.63762  0.27524  1
 Ru  Ru3  1  0.36238  0.36238  0.72476  1
 Ru  Ru4  1  0.88762  0.38762  0.77525  1
 Sm  Sm1  1  0.00000  0.00000  0.00000  1
 Sm  Sm2  1  0.25000  0.75000  0.50000  1
