CIF file written using JARVIS-Tools package.
data_Li2TiCo2O5
_symmetry_space_group_name_H-M  'P1'
_cell_length_a       5.09337
_cell_length_b       5.09914
_cell_length_c       7.77262
_cell_angle_alpha    82.8928
_cell_angle_beta     70.0409
_cell_angle_gamma    69.0554

_symmetry_Int_Tables_number  1
_chemical_formula_structural  Li2TiCo2O5
_chemical_formula_sum  Li4Ti2Co4O0
_cell_volume  177.20666356057538
_cell_formula_units_Z  2
loop_
  _symmetry_equiv_pos_site_id
 _symmetry_equiv_pos_as_xyz
 1  'x, y, z'
loop_
 _atom_site_type_symbol
 _atom_site_label
 _atom_site_symmetry_multiplicity
 _atom_site_fract_x
 _atom_site_fract_y
 _atom_site_fract_z
 _atom_site_fract_occupancy
 Co  Co1  1  0.40012  0.98336  0.21667  1
 Co  Co2  1  0.31310  0.50536  0.38949  1
 Co  Co3  1  0.60040  0.00021  0.79155  1
 Co  Co4  1  0.87391  0.51280  0.20287  1
 Li  Li1  1  0.10169  0.50419  0.79350  1
 Li  Li2  1  0.79895  0.00232  0.40543  1
 Li  Li3  1  0.49173  0.48746  0.00150  1
 Li  Li4  1  0.20273  0.00112  0.59867  1
 O  O1  1  0.75395  0.77057  -0.00479  1
 O  O2  1  0.93944  0.73631  0.59583  1
 O  O3  1  0.14557  0.75545  0.18580  1
 O  O4  1  0.04464  0.26484  0.40789  1
 O  O5  1  0.34756  0.74595  0.80088  1
 O  O6  1  0.54662  0.74627  0.41704  1
 O  O7  1  0.66373  0.23757  0.18587  1
 O  O8  1  0.23692  0.23745  0.00596  1
 O  O9  1  0.46755  0.26707  0.59790  1
 O  O10  1  0.85589  0.25143  0.79864  1
 Ti  Ti1  1  0.01051  -0.00336  -0.00224  1
 Ti  Ti2  1  0.70497  0.49365  0.61154  1
