CIF file written using JARVIS-Tools package.
data_NaCaP3O9
_symmetry_space_group_name_H-M  'P-1'
_cell_length_a       6.78127
_cell_length_b       6.95597
_cell_length_c       7.63962
_cell_angle_alpha    83.7235
_cell_angle_beta     80.8034
_cell_angle_gamma    82.5321

_symmetry_Int_Tables_number  2
_chemical_formula_structural  NaCaP3O9
_chemical_formula_sum  Na2Ca2P6O8
_cell_volume  351.2672862319223
_cell_formula_units_Z  2
loop_
  _symmetry_equiv_pos_site_id
 _symmetry_equiv_pos_as_xyz
 1  'x, y, z'
loop_
 _atom_site_type_symbol
 _atom_site_label
 _atom_site_symmetry_multiplicity
 _atom_site_fract_x
 _atom_site_fract_y
 _atom_site_fract_z
 _atom_site_fract_occupancy
 Ca  Ca1  1  0.01389  0.72369  0.63775  1
 Ca  Ca2  1  0.98611  0.27631  0.36225  1
 Na  Na1  1  0.46026  0.37404  0.34476  1
 Na  Na2  1  0.53974  0.62596  0.65524  1
 O  O1  1  0.08159  0.03797  0.65970  1
 O  O2  1  0.91841  0.96203  0.34030  1
 O  O3  1  0.37592  0.13698  0.79159  1
 O  O4  1  0.68108  0.90695  0.69724  1
 O  O5  1  0.16744  0.38072  0.59655  1
 O  O6  1  0.83256  0.61928  0.40345  1
 O  O7  1  0.03903  0.24402  0.91848  1
 O  O8  1  0.62408  0.86302  0.20841  1
 O  O9  1  0.75648  0.34805  0.14901  1
 O  O10  1  0.78311  0.51824  0.82768  1
 O  O11  1  0.21689  0.48176  0.17232  1
 O  O12  1  0.31294  0.82878  0.09995  1
 O  O13  1  0.96097  0.75598  0.08152  1
 O  O14  1  0.65909  0.27075  0.57158  1
 O  O15  1  0.34091  0.72925  0.42842  1
 O  O16  1  0.24352  0.65195  0.85099  1
 O  O17  1  0.68706  0.17122  0.90005  1
 O  O18  1  0.31892  0.09305  0.30276  1
 P  P1  1  0.80595  0.33814  0.95216  1
 P  P2  1  0.83510  0.80004  0.27310  1
 P  P3  1  0.16490  0.19996  0.72690  1
 P  P4  1  0.61457  0.11619  0.72233  1
 P  P5  1  0.19405  0.66186  0.04784  1
 P  P6  1  0.38543  0.88381  0.27767  1
