CIF file written using JARVIS-Tools package.
data_Mn5O3F5
_symmetry_space_group_name_H-M  'R3m'
_cell_length_a       6.27164
_cell_length_b       6.27164
_cell_length_c       6.27164
_cell_angle_alpha    60.6444
_cell_angle_beta     60.6443
_cell_angle_gamma    60.6443

_symmetry_Int_Tables_number  160
_chemical_formula_structural  Mn5O3F5
_chemical_formula_sum  Mn5O3F5
_cell_volume  176.97054607593572
_cell_formula_units_Z  1
loop_
  _symmetry_equiv_pos_site_id
 _symmetry_equiv_pos_as_xyz
 1  'x, y, z'
loop_
 _atom_site_type_symbol
 _atom_site_label
 _atom_site_symmetry_multiplicity
 _atom_site_fract_x
 _atom_site_fract_y
 _atom_site_fract_z
 _atom_site_fract_occupancy
 F  F1  1  0.12230  0.12230  0.12230  1
 F  F2  1  0.18311  0.61121  0.61121  1
 F  F3  1  0.61121  0.61121  0.18311  1
 F  F4  1  0.61121  0.18311  0.61121  1
 F  F5  1  0.61903  0.61903  0.61903  1
 Mn  Mn1  1  0.37085  0.37085  0.37085  1
 Mn  Mn2  1  0.38067  0.38067  0.88614  1
 Mn  Mn3  1  0.38067  0.88614  0.38067  1
 Mn  Mn4  1  0.88614  0.38067  0.38067  1
 Mn  Mn5  1  0.97895  0.97895  0.97895  1
 O  O1  1  0.13057  0.59205  0.13057  1
 O  O2  1  0.13057  0.13057  0.59205  1
 O  O3  1  0.59205  0.13057  0.13057  1
