CIF file written using JARVIS-Tools package.
data_NiBiO3
_symmetry_space_group_name_H-M  'Pm'
_cell_length_a       3.78767
_cell_length_b       4.00639
_cell_length_c       3.8375
_cell_angle_alpha    89.1134
_cell_angle_beta     89.9879
_cell_angle_gamma    89.9803

_symmetry_Int_Tables_number  6
_chemical_formula_structural  NiBiO3
_chemical_formula_sum  NiBiO3
_cell_volume  58.22670504779935
_cell_formula_units_Z  1
loop_
  _symmetry_equiv_pos_site_id
 _symmetry_equiv_pos_as_xyz
 1  'x, y, z'
loop_
 _atom_site_type_symbol
 _atom_site_label
 _atom_site_symmetry_multiplicity
 _atom_site_fract_x
 _atom_site_fract_y
 _atom_site_fract_z
 _atom_site_fract_occupancy
 Bi  Bi1  1  -0.00547  0.07483  0.04088  1
 Ni  Ni1  1  0.49396  0.50446  0.49378  1
 O  O1  1  0.49374  0.98365  0.45205  1
 O  O2  1  0.49383  0.44349  0.98878  1
 O  O3  1  0.99393  0.44357  0.48452  1
