CIF file written using JARVIS-Tools package.
data_Mn3Fe
_symmetry_space_group_name_H-M  'Pmmm'
_cell_length_a       2.46207
_cell_length_b       3.48485
_cell_length_c       4.93382
_cell_angle_alpha    90
_cell_angle_beta     90
_cell_angle_gamma    90

_symmetry_Int_Tables_number  47
_chemical_formula_structural  Mn3Fe
_chemical_formula_sum  Mn3Fe
_cell_volume  42.33194205907895
_cell_formula_units_Z  1
loop_
  _symmetry_equiv_pos_site_id
 _symmetry_equiv_pos_as_xyz
 1  'x, y, z'
loop_
 _atom_site_type_symbol
 _atom_site_label
 _atom_site_symmetry_multiplicity
 _atom_site_fract_x
 _atom_site_fract_y
 _atom_site_fract_z
 _atom_site_fract_occupancy
 Fe  Fe1  1  0.00000  0.00000  0.00000  1
 Mn  Mn1  1  0.00000  0.00000  0.50000  1
 Mn  Mn2  1  0.50000  0.50000  0.75258  1
 Mn  Mn3  1  0.50000  0.50000  0.24742  1
