CIF file written using JARVIS-Tools package.
data_Co5SnO12
_symmetry_space_group_name_H-M  'C2/m'
_cell_length_a       5.03273
_cell_length_b       5.03286
_cell_length_c       8.7191
_cell_angle_alpha    84.5127
_cell_angle_beta     78.9738
_cell_angle_gamma    60.0009

_symmetry_Int_Tables_number  12
_chemical_formula_structural  Co5SnO12
_chemical_formula_sum  Co5SnO2
_cell_volume  187.72927473744414
_cell_formula_units_Z  1
loop_
  _symmetry_equiv_pos_site_id
 _symmetry_equiv_pos_as_xyz
 1  'x, y, z'
loop_
 _atom_site_type_symbol
 _atom_site_label
 _atom_site_symmetry_multiplicity
 _atom_site_fract_x
 _atom_site_fract_y
 _atom_site_fract_z
 _atom_site_fract_occupancy
 Co  Co1  1  0.16657  0.66686  0.50000  1
 Co  Co2  1  0.66667  0.66666  -0.00000  1
 Co  Co3  1  0.33333  0.33334  0.00000  1
 Co  Co4  1  0.83343  0.33314  0.50000  1
 Co  Co5  1  0.50000  0.00000  0.50000  1
 O  O1  1  0.96186  0.63629  0.11511  1
 O  O2  1  0.40185  0.63629  0.88489  1
 O  O3  1  0.67442  -0.00000  0.88490  1
 O  O4  1  0.53362  0.66704  0.39744  1
 O  O5  1  0.20066  0.33296  0.39744  1
 O  O6  1  0.59815  0.36371  0.11511  1
 O  O7  1  0.79934  0.66704  0.60256  1
 O  O8  1  0.46638  0.33296  0.60256  1
 O  O9  1  0.32558  0.00000  0.11510  1
 O  O10  1  0.03814  0.36371  0.88489  1
 O  O11  1  0.13115  0.00000  0.60593  1
 O  O12  1  0.86885  -0.00000  0.39407  1
 Sn  Sn1  1  0.00000  0.00000  0.00000  1
