CIF file written using JARVIS-Tools package.
data_Cr3O2F2
_symmetry_space_group_name_H-M  'P2_1/c'
_cell_length_a       5.5
_cell_length_b       6.41234
_cell_length_c       5.88398
_cell_angle_alpha    90
_cell_angle_beta     116.565
_cell_angle_gamma    90

_symmetry_Int_Tables_number  14
_chemical_formula_structural  Cr3O2F2
_chemical_formula_sum  Cr6O4F4
_cell_volume  185.60659827175667
_cell_formula_units_Z  2
loop_
  _symmetry_equiv_pos_site_id
 _symmetry_equiv_pos_as_xyz
 1  'x, y, z'
loop_
 _atom_site_type_symbol
 _atom_site_label
 _atom_site_symmetry_multiplicity
 _atom_site_fract_x
 _atom_site_fract_y
 _atom_site_fract_z
 _atom_site_fract_occupancy
 Cr  Cr1  1  0.50000  0.50000  -0.00000  1
 Cr  Cr2  1  0.00000  0.00000  0.00000  1
 Cr  Cr3  1  0.24710  0.87758  0.54036  1
 Cr  Cr4  1  0.25290  0.37758  0.45964  1
 Cr  Cr5  1  0.74710  0.62242  0.54036  1
 Cr  Cr6  1  0.75290  0.12242  0.45964  1
 F  F1  1  0.13069  0.37979  0.75731  1
 F  F2  1  0.63069  0.12021  0.75731  1
 F  F3  1  0.36931  0.87979  0.24269  1
 F  F4  1  0.86931  0.62021  0.24269  1
 O  O1  1  0.47419  0.62226  0.67856  1
 O  O2  1  0.02581  0.12226  0.32144  1
 O  O3  1  0.97419  0.87774  0.67856  1
 O  O4  1  0.52581  0.37774  0.32144  1
