CIF file written using JARVIS-Tools package.
data_Mn3O2F6
_symmetry_space_group_name_H-M  'P2_1/c'
_cell_length_a       5.38816
_cell_length_b       4.67401
_cell_length_c       9.97463
_cell_angle_alpha    90
_cell_angle_beta     95.1148
_cell_angle_gamma    90

_symmetry_Int_Tables_number  14
_chemical_formula_structural  Mn3O2F6
_chemical_formula_sum  Mn6O4F2
_cell_volume  250.2037954228304
_cell_formula_units_Z  2
loop_
  _symmetry_equiv_pos_site_id
 _symmetry_equiv_pos_as_xyz
 1  'x, y, z'
loop_
 _atom_site_type_symbol
 _atom_site_label
 _atom_site_symmetry_multiplicity
 _atom_site_fract_x
 _atom_site_fract_y
 _atom_site_fract_z
 _atom_site_fract_occupancy
 F  F1  1  0.02145  0.23273  0.19084  1
 F  F2  1  0.22103  0.68298  0.07489  1
 F  F3  1  0.77897  0.31702  0.92511  1
 F  F4  1  0.97855  0.76727  0.80916  1
 F  F5  1  0.02145  0.26727  0.69084  1
 F  F6  1  0.30237  0.17490  0.92098  1
 F  F7  1  0.69763  0.67490  0.57902  1
 F  F8  1  0.30237  0.32510  0.42098  1
 F  F9  1  0.77897  0.18298  0.42511  1
 F  F10  1  0.97855  0.73273  0.30916  1
 F  F11  1  0.69763  0.82510  0.07902  1
 F  F12  1  0.22103  0.81702  0.57489  1
 Mn  Mn1  1  0.73814  0.02669  0.24339  1
 Mn  Mn2  1  0.26186  0.52669  0.25661  1
 Mn  Mn3  1  0.50000  0.00000  0.50000  1
 Mn  Mn4  1  0.73814  0.47331  0.74339  1
 Mn  Mn5  1  0.26186  0.97331  0.75661  1
 Mn  Mn6  1  0.50000  0.50000  0.00000  1
 O  O1  1  0.52229  0.32522  0.17664  1
 O  O2  1  0.47771  0.82522  0.32336  1
 O  O3  1  0.52229  0.17478  0.67664  1
 O  O4  1  0.47771  0.67478  0.82336  1
