CIF file written using JARVIS-Tools package.
data_Li4MnOF4
_symmetry_space_group_name_H-M  'I4/m'
_cell_length_a       3.98903
_cell_length_b       5.19712
_cell_length_c       5.19712
_cell_angle_alpha    98.4694
_cell_angle_beta     112.567
_cell_angle_gamma    67.4325

_symmetry_Int_Tables_number  87
_chemical_formula_structural  Li4MnOF4
_chemical_formula_sum  Li4MnOF4
_cell_volume  91.87526009854389
_cell_formula_units_Z  1
loop_
  _symmetry_equiv_pos_site_id
 _symmetry_equiv_pos_as_xyz
 1  'x, y, z'
loop_
 _atom_site_type_symbol
 _atom_site_label
 _atom_site_symmetry_multiplicity
 _atom_site_fract_x
 _atom_site_fract_y
 _atom_site_fract_z
 _atom_site_fract_occupancy
 F  F1  1  0.10634  0.20768  0.42036  1
 F  F2  1  0.31402  0.57964  0.20768  1
 F  F3  1  0.68598  0.42036  0.79232  1
 F  F4  1  0.89366  0.79232  0.57964  1
 Li  Li1  1  0.58626  0.20397  0.37649  1
 Li  Li2  1  0.20977  0.37649  0.79603  1
 Li  Li3  1  0.79023  0.62351  0.20397  1
 Li  Li4  1  0.41374  0.79603  0.62351  1
 Mn  Mn1  1  0.00000  0.00000  0.00000  1
 O  O1  1  0.50000  0.00000  0.00000  1
