CIF file written using JARVIS-Tools package.
data_BaBrCl
_symmetry_space_group_name_H-M  'Pnma'
_cell_length_a       4.9431
_cell_length_b       7.97206
_cell_length_c       10.0098
_cell_angle_alpha    90
_cell_angle_beta     90
_cell_angle_gamma    90

_symmetry_Int_Tables_number  62
_chemical_formula_structural  BaBrCl
_chemical_formula_sum  Ba4Br4Cl4
_cell_volume  394.45123358834724
_cell_formula_units_Z  4
loop_
  _symmetry_equiv_pos_site_id
 _symmetry_equiv_pos_as_xyz
 1  'x, y, z'
loop_
 _atom_site_type_symbol
 _atom_site_label
 _atom_site_symmetry_multiplicity
 _atom_site_fract_x
 _atom_site_fract_y
 _atom_site_fract_z
 _atom_site_fract_occupancy
 Ba  Ba1  1  0.75000  0.76979  0.10596  1
 Ba  Ba2  1  0.25000  0.23021  0.89404  1
 Ba  Ba3  1  0.75000  0.26979  0.39404  1
 Ba  Ba4  1  0.25000  0.73021  0.60596  1
 Br  Br1  1  0.75000  0.85671  0.41991  1
 Br  Br2  1  0.25000  0.14329  0.58009  1
 Br  Br3  1  0.75000  0.35671  0.08009  1
 Br  Br4  1  0.25000  0.64329  0.91991  1
 Cl  Cl1  1  0.75000  -0.01635  0.83826  1
 Cl  Cl2  1  0.25000  0.01635  0.16174  1
 Cl  Cl3  1  0.75000  0.48365  0.66174  1
 Cl  Cl4  1  0.25000  0.51635  0.33826  1
