CIF file written using JARVIS-Tools package.
data_RbTlBr3
_symmetry_space_group_name_H-M  'Cm'
_cell_length_a       5.76964
_cell_length_b       5.76603
_cell_length_c       5.76603
_cell_angle_alpha    89.9424
_cell_angle_beta     90.1789
_cell_angle_gamma    90.1622

_symmetry_Int_Tables_number  8
_chemical_formula_structural  RbTlBr3
_chemical_formula_sum  RbTlBr3
_cell_volume  191.82189539295396
_cell_formula_units_Z  1
loop_
  _symmetry_equiv_pos_site_id
 _symmetry_equiv_pos_as_xyz
 1  'x, y, z'
loop_
 _atom_site_type_symbol
 _atom_site_label
 _atom_site_symmetry_multiplicity
 _atom_site_fract_x
 _atom_site_fract_y
 _atom_site_fract_z
 _atom_site_fract_occupancy
 Br  Br1  1  0.52261  0.49948  -0.00144  1
 Br  Br2  1  0.01636  0.49815  0.49591  1
 Br  Br3  1  0.52238  0.00068  0.49704  1
 Rb  Rb1  1  -0.01547  0.01034  0.00918  1
 Tl  Tl1  1  0.51411  0.50135  0.49931  1
