CIF file written using JARVIS-Tools package.
data_LiCrBO3
_symmetry_space_group_name_H-M  'P-6'
_cell_length_a       8.09166
_cell_length_b       3.11218
_cell_length_c       8.09166
_cell_angle_alpha    90
_cell_angle_beta     120
_cell_angle_gamma    90

_symmetry_Int_Tables_number  174
_chemical_formula_structural  LiCrBO3
_chemical_formula_sum  Li3Cr3B3O9
_cell_volume  176.46929017733817
_cell_formula_units_Z  3
loop_
  _symmetry_equiv_pos_site_id
 _symmetry_equiv_pos_as_xyz
 1  'x, y, z'
loop_
 _atom_site_type_symbol
 _atom_site_label
 _atom_site_symmetry_multiplicity
 _atom_site_fract_x
 _atom_site_fract_y
 _atom_site_fract_z
 _atom_site_fract_occupancy
 B  B1  1  0.66666  0.50000  0.33333  1
 B  B2  1  0.33334  0.50000  0.66667  1
 B  B3  1  0.00000  0.00000  0.00000  1
 Cr  Cr1  1  0.62464  0.00000  0.60306  1
 Cr  Cr2  1  0.97841  0.00000  0.37535  1
 Cr  Cr3  1  0.39694  0.00000  0.02158  1
 Li  Li1  1  0.02136  0.50000  0.72954  1
 Li  Li2  1  0.27046  0.50000  0.29182  1
 Li  Li3  1  0.70818  0.50000  0.97864  1
 O  O1  1  0.13655  0.50000  0.55541  1
 O  O2  1  0.44460  0.50000  0.58114  1
 O  O3  1  0.74683  0.50000  0.53163  1
 O  O4  1  0.46836  0.50000  0.21520  1
 O  O5  1  0.78479  0.50000  0.25316  1
 O  O6  1  0.08746  0.00000  0.88920  1
 O  O7  1  0.41886  0.50000  0.86346  1
 O  O8  1  0.80173  0.00000  0.91254  1
 O  O9  1  0.11080  0.00000  0.19827  1
