CIF file written using JARVIS-Tools package.
data_Li3VF6
_symmetry_space_group_name_H-M  'P2_1'
_cell_length_a       5.15448
_cell_length_b       8.8611
_cell_length_c       5.70676
_cell_angle_alpha    90
_cell_angle_beta     120.709
_cell_angle_gamma    90

_symmetry_Int_Tables_number  4
_chemical_formula_structural  Li3VF6
_chemical_formula_sum  Li6V2F2
_cell_volume  224.1017920781753
_cell_formula_units_Z  2
loop_
  _symmetry_equiv_pos_site_id
 _symmetry_equiv_pos_as_xyz
 1  'x, y, z'
loop_
 _atom_site_type_symbol
 _atom_site_label
 _atom_site_symmetry_multiplicity
 _atom_site_fract_x
 _atom_site_fract_y
 _atom_site_fract_z
 _atom_site_fract_occupancy
 F  F1  1  0.20416  0.33959  0.21138  1
 F  F2  1  0.79584  0.83959  0.78862  1
 F  F3  1  0.81042  0.52395  0.27056  1
 F  F4  1  0.71005  0.16288  0.74023  1
 F  F5  1  0.23613  0.64048  0.72574  1
 F  F6  1  0.67894  0.49566  0.68864  1
 F  F7  1  0.22049  0.32780  0.69143  1
 F  F8  1  0.28995  0.66288  0.25977  1
 F  F9  1  0.32106  -0.00434  0.31136  1
 F  F10  1  0.76387  0.14048  0.27426  1
 F  F11  1  0.77951  0.82780  0.30857  1
 F  F12  1  0.18958  0.02395  0.72944  1
 Li  Li1  1  0.04843  0.83817  0.17287  1
 Li  Li2  1  0.51425  0.66838  0.07863  1
 Li  Li3  1  0.17535  0.16837  0.40247  1
 Li  Li4  1  0.82465  0.66837  0.59753  1
 Li  Li5  1  0.95157  0.33817  0.82713  1
 Li  Li6  1  0.48575  0.16838  0.92137  1
 V  V1  1  0.23974  0.49685  0.46697  1
 V  V2  1  0.76026  0.99685  0.53303  1
