CIF file written using JARVIS-Tools package.
data_AsI3F6
_symmetry_space_group_name_H-M  'P-1'
_cell_length_a       5.67888
_cell_length_b       8.0537
_cell_length_c       10.4104
_cell_angle_alpha    91.2853
_cell_angle_beta     76.6464
_cell_angle_gamma    78.5661

_symmetry_Int_Tables_number  2
_chemical_formula_structural  AsI3F6
_chemical_formula_sum  As2I6F2
_cell_volume  452.89877320498096
_cell_formula_units_Z  2
loop_
  _symmetry_equiv_pos_site_id
 _symmetry_equiv_pos_as_xyz
 1  'x, y, z'
loop_
 _atom_site_type_symbol
 _atom_site_label
 _atom_site_symmetry_multiplicity
 _atom_site_fract_x
 _atom_site_fract_y
 _atom_site_fract_z
 _atom_site_fract_occupancy
 As  As1  1  0.46448  0.76621  0.80402  1
 As  As2  1  0.53552  0.23379  0.19598  1
 F  F1  1  0.70279  0.64703  0.67740  1
 F  F2  1  0.51476  0.04695  0.28339  1
 F  F3  1  0.48524  0.95305  0.71661  1
 F  F4  1  0.32196  0.18963  0.10778  1
 F  F5  1  0.67804  0.81037  0.89222  1
 F  F6  1  0.56697  0.42067  0.11073  1
 F  F7  1  0.43303  0.57933  0.88927  1
 F  F8  1  0.29721  0.35297  0.32260  1
 F  F9  1  0.21695  0.88713  0.92830  1
 F  F10  1  0.78305  0.11287  0.07170  1
 F  F11  1  0.23942  0.72425  0.71774  1
 F  F12  1  0.76058  0.27575  0.28226  1
 I  I1  1  0.82477  0.15529  0.77881  1
 I  I2  1  0.77329  0.23828  0.53360  1
 I  I3  1  0.22671  0.76172  0.46640  1
 I  I4  1  0.09659  0.37099  0.84055  1
 I  I5  1  0.90341  0.62901  0.15945  1
 I  I6  1  0.17523  0.84471  0.22119  1
