CIF file written using JARVIS-Tools package.
data_Co2SbO6
_symmetry_space_group_name_H-M  'Cmce'
_cell_length_a       5.13204
_cell_length_b       5.10853
_cell_length_c       8.88926
_cell_angle_alpha    90
_cell_angle_beta     90
_cell_angle_gamma    60.1514

_symmetry_Int_Tables_number  64
_chemical_formula_structural  Co2SbO6
_chemical_formula_sum  Co4Sb2O2
_cell_volume  202.13594253146292
_cell_formula_units_Z  2
loop_
  _symmetry_equiv_pos_site_id
 _symmetry_equiv_pos_as_xyz
 1  'x, y, z'
loop_
 _atom_site_type_symbol
 _atom_site_label
 _atom_site_symmetry_multiplicity
 _atom_site_fract_x
 _atom_site_fract_y
 _atom_site_fract_z
 _atom_site_fract_occupancy
 Co  Co1  1  0.33356  0.33322  0.00000  1
 Co  Co2  1  0.33356  0.83322  0.50000  1
 Co  Co3  1  0.66644  0.16678  0.50000  1
 Co  Co4  1  0.66644  0.66678  0.00000  1
 O  O1  1  0.00000  0.14694  0.60839  1
 O  O2  1  -0.00000  0.35306  0.10839  1
 O  O3  1  0.64869  0.49937  0.39342  1
 O  O4  1  0.35131  0.00063  0.89342  1
 O  O5  1  0.00000  0.64694  0.89161  1
 O  O6  1  0.35131  0.14806  0.39342  1
 O  O7  1  0.35131  0.64806  0.10658  1
 O  O8  1  -0.00000  0.85306  0.39161  1
 O  O9  1  0.64869  0.99937  0.10658  1
 O  O10  1  0.64869  0.35194  0.89342  1
 O  O11  1  0.35131  0.50063  0.60658  1
 O  O12  1  0.64869  0.85194  0.60658  1
 Sb  Sb1  1  -0.00000  0.50000  0.50000  1
 Sb  Sb2  1  0.00000  0.00000  0.00000  1
