CIF file written using JARVIS-Tools package.
data_Mo3WSe4S4
_symmetry_space_group_name_H-M  'P3m1'
_cell_length_a       3.25637
_cell_length_b       3.25637
_cell_length_c       33.4559
_cell_angle_alpha    89.9949
_cell_angle_beta     90.0038
_cell_angle_gamma    120

_symmetry_Int_Tables_number  156
_chemical_formula_structural  Mo3WSe4S4
_chemical_formula_sum  Mo3WSe4S4
_cell_volume  307.23377890423905
_cell_formula_units_Z  1
loop_
  _symmetry_equiv_pos_site_id
 _symmetry_equiv_pos_as_xyz
 1  'x, y, z'
loop_
 _atom_site_type_symbol
 _atom_site_label
 _atom_site_symmetry_multiplicity
 _atom_site_fract_x
 _atom_site_fract_y
 _atom_site_fract_z
 _atom_site_fract_occupancy
 Mo  Mo1  1  0.33323  0.66670  0.08813  1
 Mo  Mo2  1  0.33327  0.66664  0.47135  1
 Mo  Mo3  1  0.66688  0.33325  0.27970  1
 S  S1  1  0.33357  0.66655  0.32593  1
 S  S2  1  0.33329  0.66670  0.71014  1
 S  S3  1  0.33353  0.66662  0.23348  1
 S  S4  1  0.33326  0.66679  0.61727  1
 Se  Se1  1  0.66655  0.33339  0.03741  1
 Se  Se2  1  0.66660  0.33335  0.42058  1
 Se  Se3  1  0.66659  0.33333  0.13890  1
 Se  Se4  1  0.66663  0.33326  0.52211  1
 W  W1  1  0.66661  0.33340  0.66373  1
