CIF file written using JARVIS-Tools package.
data_Li2VOF3
_symmetry_space_group_name_H-M  'C2'
_cell_length_a       5.61455
_cell_length_b       5.61455
_cell_length_c       5.16719
_cell_angle_alpha    88.7428
_cell_angle_beta     91.2572
_cell_angle_gamma    118.155

_symmetry_Int_Tables_number  5
_chemical_formula_structural  Li2VOF3
_chemical_formula_sum  Li4V2O2F6
_cell_volume  143.56582663988397
_cell_formula_units_Z  2
loop_
  _symmetry_equiv_pos_site_id
 _symmetry_equiv_pos_as_xyz
 1  'x, y, z'
loop_
 _atom_site_type_symbol
 _atom_site_label
 _atom_site_symmetry_multiplicity
 _atom_site_fract_x
 _atom_site_fract_y
 _atom_site_fract_z
 _atom_site_fract_occupancy
 F  F1  1  0.73574  0.99917  0.88593  1
 F  F2  1  0.99432  0.27142  0.38847  1
 F  F3  1  0.47976  0.73422  0.42328  1
 F  F4  1  0.73422  0.47976  0.07672  1
 F  F5  1  0.99917  0.73574  0.61407  1
 F  F6  1  0.27142  0.99432  0.11153  1
 Li  Li1  1  0.34317  0.95678  0.75909  1
 Li  Li2  1  0.06105  0.65674  0.27492  1
 Li  Li3  1  0.95678  0.34317  0.74091  1
 Li  Li4  1  0.65674  0.06105  0.22508  1
 O  O1  1  0.29560  0.50859  0.93903  1
 O  O2  1  0.50859  0.29560  0.56097  1
 V  V1  1  0.61269  0.61269  0.75000  1
 V  V2  1  0.35076  0.35076  0.25000  1
