CIF file written using JARVIS-Tools package.
data_ZnSb2O4
_symmetry_space_group_name_H-M  'C2/m'
_cell_length_a       3.31527
_cell_length_b       10.2522
_cell_length_c       6.61977
_cell_angle_alpha    71.6454
_cell_angle_beta     75.4971
_cell_angle_gamma    80.6958

_symmetry_Int_Tables_number  12
_chemical_formula_structural  ZnSb2O4
_chemical_formula_sum  Zn2Sb4O8
_cell_volume  205.90440258192842
_cell_formula_units_Z  2
loop_
  _symmetry_equiv_pos_site_id
 _symmetry_equiv_pos_as_xyz
 1  'x, y, z'
loop_
 _atom_site_type_symbol
 _atom_site_label
 _atom_site_symmetry_multiplicity
 _atom_site_fract_x
 _atom_site_fract_y
 _atom_site_fract_z
 _atom_site_fract_occupancy
 O  O1  1  0.90249  0.76544  0.43717  1
 O  O2  1  0.40296  0.26568  0.93661  1
 O  O3  1  0.59933  0.71244  0.09645  1
 O  O4  1  0.09987  0.21268  0.59590  1
 O  O5  1  0.22906  0.89020  0.65934  1
 O  O6  1  0.72938  0.39024  0.15915  1
 O  O7  1  0.77334  0.08792  0.37373  1
 O  O8  1  0.27289  0.58787  0.87392  1
 Sb  Sb1  1  0.61670  0.07808  0.69699  1
 Sb  Sb2  1  0.11620  0.57769  0.19728  1
 Sb  Sb3  1  0.88609  0.40043  0.83578  1
 Sb  Sb4  1  0.38566  0.90003  0.33607  1
 Zn  Zn1  1  0.25163  0.23890  0.26627  1
 Zn  Zn2  1  0.75069  0.73922  0.76679  1
