CIF file written using JARVIS-Tools package.
data_Li2V2SiGeO10
_symmetry_space_group_name_H-M  'C222'
_cell_length_a       6.3971
_cell_length_b       6.3971
_cell_length_c       4.5431
_cell_angle_alpha    90
_cell_angle_beta     90
_cell_angle_gamma    89.2598

_symmetry_Int_Tables_number  21
_chemical_formula_structural  Li2V2SiGeO10
_chemical_formula_sum  Li2V2SiGeO0
_cell_volume  185.90150207117463
_cell_formula_units_Z  1
loop_
  _symmetry_equiv_pos_site_id
 _symmetry_equiv_pos_as_xyz
 1  'x, y, z'
loop_
 _atom_site_type_symbol
 _atom_site_label
 _atom_site_symmetry_multiplicity
 _atom_site_fract_x
 _atom_site_fract_y
 _atom_site_fract_z
 _atom_site_fract_occupancy
 Ge  Ge1  1  0.75000  0.25000  0.50000  1
 Li  Li1  1  0.01106  0.51106  0.00000  1
 Li  Li2  1  0.48894  0.98894  0.00000  1
 O  O1  1  0.04026  0.74519  0.28973  1
 O  O2  1  0.24519  0.54026  0.71027  1
 O  O3  1  0.25000  0.25000  0.25480  1
 O  O4  1  0.25481  0.95974  0.71027  1
 O  O5  1  0.45974  0.75481  0.28973  1
 O  O6  1  0.52964  0.24187  0.73586  1
 O  O7  1  0.74187  0.02964  0.26414  1
 O  O8  1  0.75813  0.47036  0.26414  1
 O  O9  1  0.75000  0.75000  0.74520  1
 O  O10  1  0.97036  0.25813  0.73586  1
 Si  Si1  1  0.25000  0.75000  0.50000  1
 V  V1  1  0.25000  0.25000  0.61297  1
 V  V2  1  0.75000  0.75000  0.38703  1
