CIF file written using JARVIS-Tools package.
data_V2P2O7
_symmetry_space_group_name_H-M  'C2/m'
_cell_length_a       5.38387
_cell_length_b       5.38387
_cell_length_c       4.48642
_cell_angle_alpha    83.2278
_cell_angle_beta     96.7722
_cell_angle_gamma    75.4273

_symmetry_Int_Tables_number  12
_chemical_formula_structural  V2P2O7
_chemical_formula_sum  V2P2O7
_cell_volume  123.49939712718376
_cell_formula_units_Z  1
loop_
  _symmetry_equiv_pos_site_id
 _symmetry_equiv_pos_as_xyz
 1  'x, y, z'
loop_
 _atom_site_type_symbol
 _atom_site_label
 _atom_site_symmetry_multiplicity
 _atom_site_fract_x
 _atom_site_fract_y
 _atom_site_fract_z
 _atom_site_fract_occupancy
 O  O1  1  0.38308  0.91839  0.72727  1
 O  O2  1  0.08161  0.61692  0.72727  1
 O  O3  1  0.37167  0.62833  0.21687  1
 O  O4  1  0.62833  0.37167  0.78313  1
 O  O5  1  0.00000  0.00000  0.00000  1
 O  O6  1  0.61692  0.08161  0.27273  1
 O  O7  1  0.91839  0.38308  0.27273  1
 P  P1  1  0.22000  0.78000  0.91060  1
 P  P2  1  0.78000  0.22000  0.08940  1
 V  V1  1  0.31233  0.31233  0.50000  1
 V  V2  1  0.68767  0.68767  0.50000  1
