CIF file written using JARVIS-Tools package.
data_Y2Ge2O7
_symmetry_space_group_name_H-M  'C2/m'
_cell_length_a       5.78916
_cell_length_b       5.78916
_cell_length_c       5.0001
_cell_angle_alpha    82.6705
_cell_angle_beta     97.3295
_cell_angle_gamma    75.0945

_symmetry_Int_Tables_number  12
_chemical_formula_structural  Y2Ge2O7
_chemical_formula_sum  Y2Ge2O7
_cell_volume  158.3482849618638
_cell_formula_units_Z  1
loop_
  _symmetry_equiv_pos_site_id
 _symmetry_equiv_pos_as_xyz
 1  'x, y, z'
loop_
 _atom_site_type_symbol
 _atom_site_label
 _atom_site_symmetry_multiplicity
 _atom_site_fract_x
 _atom_site_fract_y
 _atom_site_fract_z
 _atom_site_fract_occupancy
 Ge  Ge1  1  0.23004  0.76996  0.41079  1
 Ge  Ge2  1  0.76996  0.23004  0.58921  1
 O  O1  1  0.08135  0.59967  0.21358  1
 O  O2  1  0.40033  0.91865  0.21358  1
 O  O3  1  0.39914  0.60086  0.72646  1
 O  O4  1  0.00000  -0.00000  0.50000  1
 O  O5  1  0.60086  0.39914  0.27354  1
 O  O6  1  0.91865  0.40033  0.78642  1
 O  O7  1  0.59967  0.08135  0.78642  1
 Y  Y1  1  0.69477  0.69477  -0.00000  1
 Y  Y2  1  0.30523  0.30523  0.00000  1
