CIF file written using JARVIS-Tools package.
data_Li3VPCO7
_symmetry_space_group_name_H-M  'P2_1'
_cell_length_a       5.15024
_cell_length_b       6.57626
_cell_length_c       8.21244
_cell_angle_alpha    90
_cell_angle_beta     92.508
_cell_angle_gamma    90

_symmetry_Int_Tables_number  4
_chemical_formula_structural  Li3VPCO7
_chemical_formula_sum  Li6V2P2C2O4
_cell_volume  277.88371593088004
_cell_formula_units_Z  2
loop_
  _symmetry_equiv_pos_site_id
 _symmetry_equiv_pos_as_xyz
 1  'x, y, z'
loop_
 _atom_site_type_symbol
 _atom_site_label
 _atom_site_symmetry_multiplicity
 _atom_site_fract_x
 _atom_site_fract_y
 _atom_site_fract_z
 _atom_site_fract_occupancy
 C  C1  1  0.52929  0.74001  0.85219  1
 C  C2  1  0.47071  0.24001  0.14781  1
 Li  Li1  1  0.04396  0.51219  0.00539  1
 Li  Li2  1  0.41878  0.23094  0.83535  1
 Li  Li3  1  0.42983  0.36630  0.49644  1
 Li  Li4  1  0.57017  0.86630  0.50356  1
 Li  Li5  1  0.58122  0.73094  0.16465  1
 Li  Li6  1  0.95604  0.01219  0.99461  1
 O  O1  1  0.23237  0.25386  0.09400  1
 O  O2  1  0.76763  0.75386  0.90600  1
 O  O3  1  0.08125  0.06583  0.77130  1
 O  O4  1  0.06824  0.43405  0.77600  1
 O  O5  1  0.46661  0.74100  0.69849  1
 O  O6  1  0.34261  0.72904  0.95556  1
 O  O7  1  0.08169  0.26327  0.50426  1
 O  O8  1  0.91831  0.76327  0.49574  1
 O  O9  1  0.91875  0.56583  0.22870  1
 O  O10  1  0.53339  0.24100  0.30151  1
 O  O11  1  0.93176  0.93405  0.22400  1
 O  O12  1  0.66186  0.23903  0.66023  1
 O  O13  1  0.33814  0.73903  0.33977  1
 O  O14  1  0.65739  0.22904  0.04444  1
 P  P1  1  0.96130  0.25045  0.67313  1
 P  P2  1  0.03870  0.75045  0.32687  1
 V  V1  1  0.93200  0.24863  0.26367  1
 V  V2  1  0.06800  0.74863  0.73633  1
