CIF file written using JARVIS-Tools package.
data_LiCrC2O6
_symmetry_space_group_name_H-M  'R-3'
_cell_length_a       4.61692
_cell_length_b       5.59585
_cell_length_c       4.61692
_cell_angle_alpha    65.636
_cell_angle_beta     120
_cell_angle_gamma    114.364

_symmetry_Int_Tables_number  148
_chemical_formula_structural  LiCrC2O6
_chemical_formula_sum  LiCrC2O6
_cell_volume  90.82739930458429
_cell_formula_units_Z  1
loop_
  _symmetry_equiv_pos_site_id
 _symmetry_equiv_pos_as_xyz
 1  'x, y, z'
loop_
 _atom_site_type_symbol
 _atom_site_label
 _atom_site_symmetry_multiplicity
 _atom_site_fract_x
 _atom_site_fract_y
 _atom_site_fract_z
 _atom_site_fract_occupancy
 C  C1  1  0.24472  0.73414  0.75528  1
 C  C2  1  0.75528  0.26586  0.24472  1
 Cr  Cr1  1  0.50000  0.50000  0.50000  1
 Li  Li1  1  0.00000  0.00000  0.00000  1
 O  O1  1  0.04209  0.26401  0.26026  1
 O  O2  1  0.51783  0.73599  0.04209  1
 O  O3  1  0.26026  0.73599  0.48217  1
 O  O4  1  0.73974  0.26401  0.51783  1
 O  O5  1  0.48217  0.26401  0.95791  1
 O  O6  1  0.95791  0.73599  0.73974  1
