CIF file written using JARVIS-Tools package.
data_LiVF6
_symmetry_space_group_name_H-M  'P4_2nm'
_cell_length_a       4.75098
_cell_length_b       4.75098
_cell_length_c       8.56918
_cell_angle_alpha    90
_cell_angle_beta     90
_cell_angle_gamma    90

_symmetry_Int_Tables_number  102
_chemical_formula_structural  LiVF6
_chemical_formula_sum  Li2V2F2
_cell_volume  193.42188239516983
_cell_formula_units_Z  2
loop_
  _symmetry_equiv_pos_site_id
 _symmetry_equiv_pos_as_xyz
 1  'x, y, z'
loop_
 _atom_site_type_symbol
 _atom_site_label
 _atom_site_symmetry_multiplicity
 _atom_site_fract_x
 _atom_site_fract_y
 _atom_site_fract_z
 _atom_site_fract_occupancy
 F  F1  1  0.18078  0.81922  0.15176  1
 F  F2  1  0.19800  0.80200  0.85330  1
 F  F3  1  0.23080  0.76920  0.48949  1
 F  F4  1  0.26920  0.26920  0.98949  1
 F  F5  1  0.30200  0.30200  0.35330  1
 F  F6  1  0.31922  0.31922  0.65176  1
 F  F7  1  0.69800  0.69800  0.35330  1
 F  F8  1  0.68078  0.68078  0.65176  1
 F  F9  1  0.73080  0.73080  0.98949  1
 F  F10  1  0.76920  0.23080  0.48949  1
 F  F11  1  0.81922  0.18078  0.15176  1
 F  F12  1  0.80200  0.19800  0.85330  1
 Li  Li1  1  0.00000  0.00000  0.35059  1
 Li  Li2  1  0.50000  0.50000  0.85059  1
 V  V1  1  0.00000  0.00000  0.99543  1
 V  V2  1  0.50000  0.50000  0.49543  1
