CIF file written using JARVIS-Tools package.
data_TiCl3
_symmetry_space_group_name_H-M  'C2/c'
_cell_length_a       6.02549
_cell_length_b       5.92734
_cell_length_c       11.7883
_cell_angle_alpha    89.2152
_cell_angle_beta     88.4558
_cell_angle_gamma    59.4507

_symmetry_Int_Tables_number  15
_chemical_formula_structural  TiCl3
_chemical_formula_sum  Ti4Cl2
_cell_volume  362.44675549894777
_cell_formula_units_Z  4
loop_
  _symmetry_equiv_pos_site_id
 _symmetry_equiv_pos_as_xyz
 1  'x, y, z'
loop_
 _atom_site_type_symbol
 _atom_site_label
 _atom_site_symmetry_multiplicity
 _atom_site_fract_x
 _atom_site_fract_y
 _atom_site_fract_z
 _atom_site_fract_occupancy
 Cl  Cl1  1  0.16851  0.00999  0.86437  1
 Cl  Cl2  1  0.51047  0.66629  0.61886  1
 Cl  Cl3  1  0.17676  0.33371  0.11886  1
 Cl  Cl4  1  0.82324  0.66629  0.88114  1
 Cl  Cl5  1  0.16502  0.32137  0.63548  1
 Cl  Cl6  1  0.83498  0.67863  0.36452  1
 Cl  Cl7  1  0.48953  0.33371  0.38114  1
 Cl  Cl8  1  0.48638  0.67863  0.13548  1
 Cl  Cl9  1  0.17850  -0.00999  0.36437  1
 Cl  Cl10  1  0.51362  0.32137  0.86452  1
 Cl  Cl11  1  0.83149  -0.00999  0.13563  1
 Cl  Cl12  1  0.82150  0.00999  0.63563  1
 Ti  Ti1  1  0.52179  0.95642  0.75000  1
 Ti  Ti2  1  0.81199  0.37603  0.75000  1
 Ti  Ti3  1  0.47821  0.04358  0.25000  1
 Ti  Ti4  1  0.18801  0.62397  0.25000  1
