CIF file written using JARVIS-Tools package.
data_Li2VCrO4
_symmetry_space_group_name_H-M  'P-1'
_cell_length_a       5.02142
_cell_length_b       5.09529
_cell_length_c       5.9331
_cell_angle_alpha    106.723
_cell_angle_beta     90.3142
_cell_angle_gamma    99.7014

_symmetry_Int_Tables_number  2
_chemical_formula_structural  Li2VCrO4
_chemical_formula_sum  Li4V2Cr2O8
_cell_volume  143.06832005698467
_cell_formula_units_Z  2
loop_
  _symmetry_equiv_pos_site_id
 _symmetry_equiv_pos_as_xyz
 1  'x, y, z'
loop_
 _atom_site_type_symbol
 _atom_site_label
 _atom_site_symmetry_multiplicity
 _atom_site_fract_x
 _atom_site_fract_y
 _atom_site_fract_z
 _atom_site_fract_occupancy
 Cr  Cr1  1  0.24883  0.49967  0.87899  1
 Cr  Cr2  1  0.75117  0.50033  0.12100  1
 Li  Li1  1  -0.00001  0.00001  -0.00000  1
 Li  Li2  1  0.49749  0.00521  0.75731  1
 Li  Li3  1  0.00002  -0.00002  0.50000  1
 Li  Li4  1  0.50252  0.99481  0.24270  1
 O  O1  1  0.87627  0.27414  0.81910  1
 O  O2  1  0.62119  0.72565  0.93085  1
 O  O3  1  0.37257  0.26667  0.57505  1
 O  O4  1  0.12441  0.73144  0.68947  1
 O  O5  1  0.87559  0.26857  0.31052  1
 O  O6  1  0.62741  0.73333  0.42495  1
 O  O7  1  0.37882  0.27435  0.06915  1
 O  O8  1  0.12373  0.72586  0.18089  1
 V  V1  1  0.74724  0.49954  0.61707  1
 V  V2  1  0.25275  0.50044  0.38293  1
