CIF file written using JARVIS-Tools package.
data_SiH10O4F6
_symmetry_space_group_name_H-M  'P2_1/c'
_cell_length_a       6.01008
_cell_length_b       9.94634
_cell_length_c       6.44759
_cell_angle_alpha    90
_cell_angle_beta     104.508
_cell_angle_gamma    90

_symmetry_Int_Tables_number  14
_chemical_formula_structural  SiH10O4F6
_chemical_formula_sum  Si2H20O8F2
_cell_volume  373.1365721684986
_cell_formula_units_Z  2
loop_
  _symmetry_equiv_pos_site_id
 _symmetry_equiv_pos_as_xyz
 1  'x, y, z'
loop_
 _atom_site_type_symbol
 _atom_site_label
 _atom_site_symmetry_multiplicity
 _atom_site_fract_x
 _atom_site_fract_y
 _atom_site_fract_z
 _atom_site_fract_occupancy
 F  F1  1  0.03082  0.89447  0.22047  1
 F  F2  1  0.03082  0.60553  0.72047  1
 F  F3  1  0.28268  0.98016  0.00948  1
 F  F4  1  0.71732  0.48016  0.49052  1
 F  F5  1  0.71732  0.01984  0.99052  1
 F  F6  1  0.28268  0.51984  0.50948  1
 F  F7  1  0.06604  0.13601  0.16849  1
 F  F8  1  0.93396  0.63601  0.33151  1
 F  F9  1  0.93396  0.86399  0.83151  1
 F  F10  1  0.06604  0.36399  0.66849  1
 F  F11  1  0.96918  0.39447  0.27953  1
 F  F12  1  0.96918  0.10553  0.77953  1
 H  H1  1  0.56734  0.80814  0.37162  1
 H  H2  1  0.78371  0.87770  0.58952  1
 H  H3  1  0.78371  0.62230  0.08952  1
 H  H4  1  0.21629  0.12230  0.41048  1
 H  H5  1  0.21629  0.37770  0.91048  1
 H  H6  1  0.82628  0.88514  0.35025  1
 H  H7  1  0.82628  0.61486  0.85025  1
 H  H8  1  0.17372  0.11486  0.64975  1
 H  H9  1  0.43266  0.30814  0.12838  1
 H  H10  1  0.38969  0.85601  0.86819  1
 H  H11  1  0.61031  0.35601  0.63181  1
 H  H12  1  0.38969  0.64399  0.36819  1
 H  H13  1  0.61031  0.14399  0.13181  1
 H  H14  1  0.74487  0.22450  0.73617  1
 H  H15  1  0.25513  0.72450  0.76383  1
 H  H16  1  0.25513  0.77550  0.26383  1
 H  H17  1  0.74487  0.27550  0.23617  1
 H  H18  1  0.17372  0.38514  0.14975  1
 H  H19  1  0.56734  0.69186  0.87162  1
 H  H20  1  0.43266  0.19186  0.62838  1
 O  O1  1  0.29358  0.11298  0.56684  1
 O  O2  1  0.70642  0.88702  0.43316  1
 O  O3  1  0.70642  0.61298  0.93316  1
 O  O4  1  0.59782  0.22609  0.21570  1
 O  O5  1  0.40218  0.72609  0.28430  1
 O  O6  1  0.40218  0.77391  0.78430  1
 O  O7  1  0.59782  0.27391  0.71570  1
 O  O8  1  0.29358  0.38702  0.06684  1
 Si  Si1  1  0.00000  0.00000  0.00000  1
 Si  Si2  1  0.00000  0.50000  0.50000  1
