CIF file written using JARVIS-Tools package.
data_TlZnF3
_symmetry_space_group_name_H-M  'Pm-3m'
_cell_length_a       4.16098
_cell_length_b       4.16112
_cell_length_c       4.16122
_cell_angle_alpha    89.9983
_cell_angle_beta     89.996
_cell_angle_gamma    89.9997

_symmetry_Int_Tables_number  221
_chemical_formula_structural  TlZnF3
_chemical_formula_sum  TlZnF3
_cell_volume  72.04875528284752
_cell_formula_units_Z  1
loop_
  _symmetry_equiv_pos_site_id
 _symmetry_equiv_pos_as_xyz
 1  'x, y, z'
loop_
 _atom_site_type_symbol
 _atom_site_label
 _atom_site_symmetry_multiplicity
 _atom_site_fract_x
 _atom_site_fract_y
 _atom_site_fract_z
 _atom_site_fract_occupancy
 F  F1  1  0.48801  -0.00000  0.49801  1
 F  F2  1  0.98799  0.50000  0.49800  1
 F  F3  1  0.48800  0.50000  0.99800  1
 Tl  Tl1  1  0.98804  0.00000  0.99799  1
 Zn  Zn1  1  0.48796  0.50000  0.49800  1
