CIF file written using JARVIS-Tools package.
data_LiVP2O8
_symmetry_space_group_name_H-M  'Cm'
_cell_length_a       4.78336
_cell_length_b       5.16175
_cell_length_c       7.43485
_cell_angle_alpha    90
_cell_angle_beta     98.586
_cell_angle_gamma    57.3467

_symmetry_Int_Tables_number  8
_chemical_formula_structural  LiVP2O8
_chemical_formula_sum  LiVP2O8
_cell_volume  152.10779479254376
_cell_formula_units_Z  1
loop_
  _symmetry_equiv_pos_site_id
 _symmetry_equiv_pos_as_xyz
 1  'x, y, z'
loop_
 _atom_site_type_symbol
 _atom_site_label
 _atom_site_symmetry_multiplicity
 _atom_site_fract_x
 _atom_site_fract_y
 _atom_site_fract_z
 _atom_site_fract_occupancy
 Li  Li1  1  0.56883  0.96558  0.41269  1
 O  O1  1  0.09444  0.20278  0.40147  1
 O  O2  1  0.06479  0.21760  0.06052  1
 O  O3  1  0.36715  0.32727  0.82829  1
 O  O4  1  0.36715  0.80558  0.82829  1
 O  O5  1  0.62421  0.19300  0.19427  1
 O  O6  1  0.62421  0.68278  0.19427  1
 O  O7  1  0.91588  0.79206  0.94824  1
 O  O8  1  0.92089  0.78956  0.60429  1
 P  P1  1  0.12438  0.68781  0.78999  1
 P  P2  1  0.85567  0.32216  0.22382  1
 V  V1  1  0.48074  0.00963  0.99725  1
