CIF file written using JARVIS-Tools package.
data_LiVCoO4
_symmetry_space_group_name_H-M  'Imma'
_cell_length_a       5.73194
_cell_length_b       5.73194
_cell_length_c       5.73194
_cell_angle_alpha    89.07
_cell_angle_beta     119.911
_cell_angle_gamma    60.9796

_symmetry_Int_Tables_number  74
_chemical_formula_structural  LiVCoO4
_chemical_formula_sum  Li2V2Co2O8
_cell_volume  134.21168694438512
_cell_formula_units_Z  2
loop_
  _symmetry_equiv_pos_site_id
 _symmetry_equiv_pos_as_xyz
 1  'x, y, z'
loop_
 _atom_site_type_symbol
 _atom_site_label
 _atom_site_symmetry_multiplicity
 _atom_site_fract_x
 _atom_site_fract_y
 _atom_site_fract_z
 _atom_site_fract_occupancy
 Co  Co1  1  0.50000  0.00000  -0.00000  1
 Co  Co2  1  0.00000  0.50000  -0.00000  1
 Li  Li1  1  0.75000  0.12252  0.62748  1
 Li  Li2  1  0.25000  0.87748  0.37252  1
 O  O1  1  0.52669  0.73867  0.78801  1
 O  O2  1  0.97331  0.73867  0.23464  1
 O  O3  1  0.97686  0.28261  0.24054  1
 O  O4  1  0.52314  0.73632  0.24054  1
 O  O5  1  0.47686  0.26368  0.75946  1
 O  O6  1  0.02314  0.71739  0.75946  1
 O  O7  1  0.02669  0.26133  0.76536  1
 O  O8  1  0.47331  0.26133  0.21199  1
 V  V1  1  0.50000  0.50000  0.00000  1
 V  V2  1  -0.00000  0.50000  0.50000  1
