CIF file written using JARVIS-Tools package.
data_RbSmTe2
_symmetry_space_group_name_H-M  'R-3m'
_cell_length_a       4.56712
_cell_length_b       4.56711
_cell_length_c       8.86632
_cell_angle_alpha    75.075
_cell_angle_beta     75.075
_cell_angle_gamma    60

_symmetry_Int_Tables_number  166
_chemical_formula_structural  RbSmTe2
_chemical_formula_sum  RbSmTe2
_cell_volume  152.91465366686427
_cell_formula_units_Z  1
loop_
  _symmetry_equiv_pos_site_id
 _symmetry_equiv_pos_as_xyz
 1  'x, y, z'
loop_
 _atom_site_type_symbol
 _atom_site_label
 _atom_site_symmetry_multiplicity
 _atom_site_fract_x
 _atom_site_fract_y
 _atom_site_fract_z
 _atom_site_fract_occupancy
 Rb  Rb1  1  0.00000  0.00000  0.00000  1
 Sm  Sm1  1  0.50000  0.50000  0.50000  1
 Te  Te1  1  0.76470  0.76470  0.70591  1
 Te  Te2  1  0.23530  0.23530  0.29409  1
