CIF file written using JARVIS-Tools package.
data_Li2VCrO4
_symmetry_space_group_name_H-M  'P2/c'
_cell_length_a       5.07507
_cell_length_b       5.02017
_cell_length_c       5.93451
_cell_angle_alpha    90.0014
_cell_angle_beta     90.0015
_cell_angle_gamma    108.88

_symmetry_Int_Tables_number  13
_chemical_formula_structural  Li2VCrO4
_chemical_formula_sum  Li4V2Cr2O8
_cell_volume  143.06276596022425
_cell_formula_units_Z  2
loop_
  _symmetry_equiv_pos_site_id
 _symmetry_equiv_pos_as_xyz
 1  'x, y, z'
loop_
 _atom_site_type_symbol
 _atom_site_label
 _atom_site_symmetry_multiplicity
 _atom_site_fract_x
 _atom_site_fract_y
 _atom_site_fract_z
 _atom_site_fract_occupancy
 Cr  Cr1  1  0.50001  0.00001  0.25421  1
 Cr  Cr2  1  0.50001  0.50002  0.49579  1
 Li  Li1  1  -0.00003  -0.00003  0.00912  1
 Li  Li2  1  0.00003  0.00002  0.49946  1
 Li  Li3  1  0.00004  0.50002  0.25054  1
 Li  Li4  1  -0.00002  0.49999  0.74088  1
 O  O1  1  0.73249  0.24000  0.00739  1
 O  O2  1  0.72570  0.24054  0.49984  1
 O  O3  1  0.27431  0.25948  0.25016  1
 O  O4  1  0.72570  0.74053  0.25016  1
 O  O5  1  0.26750  0.25998  0.74258  1
 O  O6  1  0.26750  0.75997  0.00741  1
 O  O7  1  0.73248  0.74001  0.74262  1
 O  O8  1  0.27431  0.75948  0.49983  1
 V  V1  1  0.49999  -0.00000  0.75783  1
 V  V2  1  0.49998  0.49998  0.99217  1
