CIF file written using JARVIS-Tools package.
data_Li2VOF5
_symmetry_space_group_name_H-M  'Imm2'
_cell_length_a       5.37338
_cell_length_b       5.37338
_cell_length_c       5.37338
_cell_angle_alpha    112.779
_cell_angle_beta     71.8538
_cell_angle_gamma    72.4593

_symmetry_Int_Tables_number  44
_chemical_formula_structural  Li2VOF5
_chemical_formula_sum  Li2VOF5
_cell_volume  119.12836451300335
_cell_formula_units_Z  1
loop_
  _symmetry_equiv_pos_site_id
 _symmetry_equiv_pos_as_xyz
 1  'x, y, z'
loop_
 _atom_site_type_symbol
 _atom_site_label
 _atom_site_symmetry_multiplicity
 _atom_site_fract_x
 _atom_site_fract_y
 _atom_site_fract_z
 _atom_site_fract_occupancy
 F  F1  1  0.28062  0.01972  0.69966  1
 F  F2  1  0.67994  0.01972  0.30034  1
 F  F3  1  0.95677  0.33780  0.29457  1
 F  F4  1  0.95677  0.74866  0.70543  1
 F  F5  1  0.67801  0.32199  0.00000  1
 Li  Li1  1  0.50684  0.24444  0.75128  1
 Li  Li2  1  0.50684  0.74187  0.24872  1
 O  O1  1  0.26625  0.73375  -0.00000  1
 V  V1  1  0.00809  -0.00809  -0.00000  1
