CIF file written using JARVIS-Tools package.
data_LiMnSi2O6
_symmetry_space_group_name_H-M  'C2/c'
_cell_length_a       6.59166
_cell_length_b       6.59166
_cell_length_c       5.29768
_cell_angle_alpha    74.4284
_cell_angle_beta     105.572
_cell_angle_gamma    95.6086

_symmetry_Int_Tables_number  15
_chemical_formula_structural  LiMnSi2O6
_chemical_formula_sum  Li2Mn2Si4O2
_cell_volume  213.51530909285907
_cell_formula_units_Z  2
loop_
  _symmetry_equiv_pos_site_id
 _symmetry_equiv_pos_as_xyz
 1  'x, y, z'
loop_
 _atom_site_type_symbol
 _atom_site_label
 _atom_site_symmetry_multiplicity
 _atom_site_fract_x
 _atom_site_fract_y
 _atom_site_fract_z
 _atom_site_fract_occupancy
 Li  Li1  1  0.24155  0.24155  0.25000  1
 Li  Li2  1  0.75845  0.75845  0.75000  1
 Mn  Mn1  1  0.10463  0.10463  0.75000  1
 Mn  Mn2  1  0.89537  0.89537  0.25000  1
 O  O1  1  0.02943  0.79779  0.63602  1
 O  O2  1  0.88742  0.62624  0.15482  1
 O  O3  1  0.20221  0.97057  0.13602  1
 O  O4  1  0.34024  0.62909  0.53155  1
 O  O5  1  0.11258  0.37376  0.84518  1
 O  O6  1  0.37091  0.65976  0.03155  1
 O  O7  1  0.62909  0.34024  0.96845  1
 O  O8  1  0.65976  0.37091  0.46845  1
 O  O9  1  0.37376  0.11258  0.65482  1
 O  O10  1  0.79779  0.02943  0.86398  1
 O  O11  1  0.62624  0.88742  0.34518  1
 O  O12  1  0.97057  0.20221  0.36398  1
 Si  Si1  1  0.79127  0.38977  0.24093  1
 Si  Si2  1  0.61023  0.20873  0.74093  1
 Si  Si3  1  0.38977  0.79127  0.25907  1
 Si  Si4  1  0.20873  0.61023  0.75907  1
