CIF file written using JARVIS-Tools package.
data_Li2MnFe3O8
_symmetry_space_group_name_H-M  'C2/m'
_cell_length_a       5.58261
_cell_length_b       5.58261
_cell_length_c       5.85119
_cell_angle_alpha    60.7208
_cell_angle_beta     90.0273
_cell_angle_gamma    119.203

_symmetry_Int_Tables_number  12
_chemical_formula_structural  Li2MnFe3O8
_chemical_formula_sum  Li2MnFe3O8
_cell_volume  131.8759458945897
_cell_formula_units_Z  1
loop_
  _symmetry_equiv_pos_site_id
 _symmetry_equiv_pos_as_xyz
 1  'x, y, z'
loop_
 _atom_site_type_symbol
 _atom_site_label
 _atom_site_symmetry_multiplicity
 _atom_site_fract_x
 _atom_site_fract_y
 _atom_site_fract_z
 _atom_site_fract_occupancy
 Fe  Fe1  1  0.00000  0.50000  0.00000  1
 Fe  Fe2  1  0.50000  0.50000  0.00000  1
 Fe  Fe3  1  0.50000  0.00000  1.00000  1
 Li  Li1  1  0.50000  0.50000  0.50000  1
 Li  Li2  1  0.00000  0.00000  0.50000  1
 Mn  Mn1  1  1.00000  -0.00000  0.00000  1
 O  O1  1  0.76190  0.52764  0.20963  1
 O  O2  1  0.26424  0.52179  0.21397  1
 O  O3  1  0.26273  0.02847  0.20963  1
 O  O4  1  0.76378  0.02052  0.21571  1
 O  O5  1  0.23622  0.97948  0.78429  1
 O  O6  1  0.73727  0.97153  0.79037  1
 O  O7  1  0.73576  0.47821  0.78603  1
 O  O8  1  0.23810  0.47236  0.79037  1
