CIF file written using JARVIS-Tools package.
data_VPO4
_symmetry_space_group_name_H-M  'Pnma'
_cell_length_a       4.72501
_cell_length_b       6.46265
_cell_length_c       8.72018
_cell_angle_alpha    90
_cell_angle_beta     90
_cell_angle_gamma    90

_symmetry_Int_Tables_number  62
_chemical_formula_structural  VPO4
_chemical_formula_sum  V4P4O6
_cell_volume  266.28013613264204
_cell_formula_units_Z  4
loop_
  _symmetry_equiv_pos_site_id
 _symmetry_equiv_pos_as_xyz
 1  'x, y, z'
loop_
 _atom_site_type_symbol
 _atom_site_label
 _atom_site_symmetry_multiplicity
 _atom_site_fract_x
 _atom_site_fract_y
 _atom_site_fract_z
 _atom_site_fract_occupancy
 O  O1  1  0.29107  0.75000  0.61799  1
 O  O2  1  0.66675  0.94818  0.12140  1
 O  O3  1  0.66675  0.55182  0.12140  1
 O  O4  1  0.20893  0.75000  0.11799  1
 O  O5  1  0.33325  0.44818  0.87860  1
 O  O6  1  0.55530  0.75000  0.35678  1
 O  O7  1  0.70893  0.25000  0.38201  1
 O  O8  1  0.05530  0.25000  0.14322  1
 O  O9  1  0.16675  0.05182  0.37860  1
 O  O10  1  0.83325  0.94818  0.62140  1
 O  O11  1  0.83325  0.55182  0.62140  1
 O  O12  1  0.33325  0.05182  0.87860  1
 O  O13  1  0.44470  0.25000  0.64322  1
 O  O14  1  0.94470  0.75000  0.85678  1
 O  O15  1  0.79107  0.25000  0.88201  1
 O  O16  1  0.16675  0.44818  0.37860  1
 P  P1  1  0.47763  0.25000  0.82298  1
 P  P2  1  0.97763  0.75000  0.67702  1
 P  P3  1  0.02237  0.25000  0.32298  1
 P  P4  1  0.52237  0.75000  0.17702  1
 V  V1  1  0.50000  0.50000  0.50000  1
 V  V2  1  0.50000  0.00000  0.50000  1
 V  V3  1  0.00000  0.50000  0.00000  1
 V  V4  1  0.00000  0.00000  0.00000  1
