CIF file written using JARVIS-Tools package.
data_LiNiPO4
_symmetry_space_group_name_H-M  'Imma'
_cell_length_a       5.55658
_cell_length_b       5.61236
_cell_length_c       5.71649
_cell_angle_alpha    59.3843
_cell_angle_beta     90
_cell_angle_gamma    119.672

_symmetry_Int_Tables_number  74
_chemical_formula_structural  LiNiPO4
_chemical_formula_sum  Li2Ni2P2O8
_cell_volume  125.49877029465384
_cell_formula_units_Z  2
loop_
  _symmetry_equiv_pos_site_id
 _symmetry_equiv_pos_as_xyz
 1  'x, y, z'
loop_
 _atom_site_type_symbol
 _atom_site_label
 _atom_site_symmetry_multiplicity
 _atom_site_fract_x
 _atom_site_fract_y
 _atom_site_fract_z
 _atom_site_fract_occupancy
 Li  Li1  1  0.00000  0.00000  0.00000  1
 Li  Li2  1  0.50000  0.00000  0.00000  1
 Ni  Ni1  1  -0.00000  0.50000  0.00000  1
 Ni  Ni2  1  -0.00000  0.50000  0.50000  1
 O  O1  1  0.26085  0.02170  0.26366  1
 O  O2  1  0.73915  0.97830  0.28536  1
 O  O3  1  0.26065  0.47859  0.26071  1
 O  O4  1  0.71794  0.47859  0.26071  1
 O  O5  1  0.26085  0.02170  0.71464  1
 O  O6  1  0.73915  0.97830  0.73634  1
 O  O7  1  0.28206  0.52141  0.73929  1
 O  O8  1  0.73935  0.52141  0.73929  1
 P  P1  1  0.36964  0.23928  0.38036  1
 P  P2  1  0.63036  0.76072  0.61964  1
