CIF file written using JARVIS-Tools package.
data_Na2AlPCO7
_symmetry_space_group_name_H-M  'P2_1/m'
_cell_length_a       5.13645
_cell_length_b       6.36143
_cell_length_c       8.83437
_cell_angle_alpha    90
_cell_angle_beta     91.2759
_cell_angle_gamma    90

_symmetry_Int_Tables_number  11
_chemical_formula_structural  Na2AlPCO7
_chemical_formula_sum  Na4Al2P2C2O4
_cell_volume  288.5929127907045
_cell_formula_units_Z  2
loop_
  _symmetry_equiv_pos_site_id
 _symmetry_equiv_pos_as_xyz
 1  'x, y, z'
loop_
 _atom_site_type_symbol
 _atom_site_label
 _atom_site_symmetry_multiplicity
 _atom_site_fract_x
 _atom_site_fract_y
 _atom_site_fract_z
 _atom_site_fract_occupancy
 Al  Al1  1  0.21779  0.25000  0.35231  1
 Al  Al2  1  0.78221  0.75000  0.64769  1
 C  C1  1  0.29244  0.25000  0.08544  1
 C  C2  1  0.70756  0.75000  0.91456  1
 Na  Na1  1  0.77255  0.50813  0.22440  1
 Na  Na2  1  0.77255  0.99187  0.22440  1
 Na  Na3  1  0.22745  0.49187  0.77560  1
 Na  Na4  1  0.22745  0.00813  0.77560  1
 O  O1  1  0.65616  0.75000  0.05246  1
 O  O2  1  0.94145  0.75000  0.85876  1
 O  O3  1  0.47312  0.25000  0.19505  1
 O  O4  1  0.20908  0.94731  0.33692  1
 O  O5  1  0.20908  0.55269  0.33692  1
 O  O6  1  0.05855  0.25000  0.14124  1
 O  O7  1  0.57759  0.75000  0.46961  1
 O  O8  1  0.79092  0.05269  0.66308  1
 O  O9  1  0.12368  0.75000  0.57838  1
 O  O10  1  0.79092  0.44731  0.66308  1
 O  O11  1  0.87632  0.25000  0.42162  1
 O  O12  1  0.52688  0.75000  0.80495  1
 O  O13  1  0.42241  0.25000  0.53039  1
 O  O14  1  0.34384  0.25000  0.94754  1
 P  P1  1  0.72116  0.25000  0.57022  1
 P  P2  1  0.27884  0.75000  0.42978  1
