CIF file written using JARVIS-Tools package.
data_Re3Se4Cl
_symmetry_space_group_name_H-M  'P-1'
_cell_length_a       6.67649
_cell_length_b       6.72152
_cell_length_c       8.91175
_cell_angle_alpha    76.6951
_cell_angle_beta     70.0318
_cell_angle_gamma    86.3106

_symmetry_Int_Tables_number  2
_chemical_formula_structural  Re3Se4Cl
_chemical_formula_sum  Re6Se8Cl2
_cell_volume  365.7494878066492
_cell_formula_units_Z  2
loop_
  _symmetry_equiv_pos_site_id
 _symmetry_equiv_pos_as_xyz
 1  'x, y, z'
loop_
 _atom_site_type_symbol
 _atom_site_label
 _atom_site_symmetry_multiplicity
 _atom_site_fract_x
 _atom_site_fract_y
 _atom_site_fract_z
 _atom_site_fract_occupancy
 Cl  Cl1  1  0.35847  0.79152  0.00962  1
 Cl  Cl2  1  0.64153  0.20848  0.99038  1
 Re  Re1  1  0.89305  0.75440  0.53667  1
 Re  Re2  1  0.84068  0.37114  0.71846  1
 Re  Re3  1  0.15932  0.62886  0.28154  1
 Re  Re4  1  0.77390  0.46220  0.43040  1
 Re  Re5  1  0.10695  0.24560  0.46333  1
 Re  Re6  1  0.22610  0.53780  0.56960  1
 Se  Se1  1  0.82970  0.82822  0.26270  1
 Se  Se2  1  0.17030  0.17178  0.73730  1
 Se  Se3  1  0.52301  0.59330  0.69096  1
 Se  Se4  1  0.71301  0.10018  0.60814  1
 Se  Se5  1  0.28699  0.89982  0.39186  1
 Se  Se6  1  0.47699  0.40670  0.30904  1
 Se  Se7  1  0.04158  0.33841  0.18933  1
 Se  Se8  1  0.95842  0.66159  0.81067  1
