CIF file written using JARVIS-Tools package.
data_Li2MnSi2O6
_symmetry_space_group_name_H-M  'C2/c'
_cell_length_a       5.67392
_cell_length_b       5.67392
_cell_length_c       9.2714
_cell_angle_alpha    90.8329
_cell_angle_beta     89.1671
_cell_angle_gamma    61.7066

_symmetry_Int_Tables_number  15
_chemical_formula_structural  Li2MnSi2O6
_chemical_formula_sum  Li4Mn2Si4O2
_cell_volume  262.71389630493206
_cell_formula_units_Z  2
loop_
  _symmetry_equiv_pos_site_id
 _symmetry_equiv_pos_as_xyz
 1  'x, y, z'
loop_
 _atom_site_type_symbol
 _atom_site_label
 _atom_site_symmetry_multiplicity
 _atom_site_fract_x
 _atom_site_fract_y
 _atom_site_fract_z
 _atom_site_fract_occupancy
 Li  Li1  1  0.59896  0.71875  0.88024  1
 Li  Li2  1  0.28125  0.40104  0.38024  1
 Li  Li3  1  0.71875  0.59896  0.61976  1
 Li  Li4  1  0.40104  0.28125  0.11976  1
 Mn  Mn1  1  0.25213  0.25213  0.75000  1
 Mn  Mn2  1  0.74787  0.74787  0.25000  1
 O  O1  1  0.85145  0.36815  0.79523  1
 O  O2  1  0.14855  0.63185  0.20477  1
 O  O3  1  0.23878  0.48691  0.58299  1
 O  O4  1  0.51309  0.76122  0.08299  1
 O  O5  1  0.36815  0.85145  0.70477  1
 O  O6  1  0.00000  -0.00000  0.50000  1
 O  O7  1  0.12012  0.12012  0.25000  1
 O  O8  1  0.76122  0.51309  0.41701  1
 O  O9  1  0.48691  0.23878  0.91701  1
 O  O10  1  0.87988  0.87988  0.75000  1
 O  O11  1  0.00000  0.00000  0.00000  1
 O  O12  1  0.63185  0.14855  0.29523  1
 Si  Si1  1  0.86333  0.20323  0.36759  1
 Si  Si2  1  0.79677  0.13667  0.86759  1
 Si  Si3  1  0.20323  0.86333  0.13241  1
 Si  Si4  1  0.13667  0.79677  0.63241  1
