CIF file written using JARVIS-Tools package.
data_Li2NdSb2
_symmetry_space_group_name_H-M  'P4/nmm'
_cell_length_a       4.61032
_cell_length_b       4.61032
_cell_length_c       10.9486
_cell_angle_alpha    90
_cell_angle_beta     90
_cell_angle_gamma    90

_symmetry_Int_Tables_number  129
_chemical_formula_structural  Li2NdSb2
_chemical_formula_sum  Li4Nd2Sb4
_cell_volume  232.71283116201184
_cell_formula_units_Z  2
loop_
  _symmetry_equiv_pos_site_id
 _symmetry_equiv_pos_as_xyz
 1  'x, y, z'
loop_
 _atom_site_type_symbol
 _atom_site_label
 _atom_site_symmetry_multiplicity
 _atom_site_fract_x
 _atom_site_fract_y
 _atom_site_fract_z
 _atom_site_fract_occupancy
 Li  Li1  1  0.50000  0.00000  0.37745  1
 Li  Li2  1  0.00000  0.50000  0.62255  1
 Li  Li3  1  0.50000  0.50000  0.00000  1
 Li  Li4  1  0.00000  0.00000  0.00000  1
 Nd  Nd1  1  0.50000  0.00000  0.73169  1
 Nd  Nd2  1  0.00000  0.50000  0.26831  1
 Sb  Sb1  1  0.00000  0.50000  0.85374  1
 Sb  Sb2  1  0.50000  0.00000  0.14626  1
 Sb  Sb3  1  0.50000  0.50000  0.50000  1
 Sb  Sb4  1  0.00000  0.00000  0.50000  1
