CIF file written using JARVIS-Tools package.
data_Li6NiOF6
_symmetry_space_group_name_H-M  'I4/mmm'
_cell_length_a       2.8353
_cell_length_b       2.8353
_cell_length_c       14.6945
_cell_angle_alpha    95.5362
_cell_angle_beta     95.5362
_cell_angle_gamma    90

_symmetry_Int_Tables_number  139
_chemical_formula_structural  Li6NiOF6
_chemical_formula_sum  Li6NiOF6
_cell_volume  117.02297836584343
_cell_formula_units_Z  1
loop_
  _symmetry_equiv_pos_site_id
 _symmetry_equiv_pos_as_xyz
 1  'x, y, z'
loop_
 _atom_site_type_symbol
 _atom_site_label
 _atom_site_symmetry_multiplicity
 _atom_site_fract_x
 _atom_site_fract_y
 _atom_site_fract_z
 _atom_site_fract_occupancy
 F  F1  1  0.07758  0.07758  0.15515  1
 F  F2  1  0.64616  0.64616  0.29232  1
 F  F3  1  0.21545  0.21545  0.43091  1
 F  F4  1  0.78455  0.78455  0.56909  1
 F  F5  1  0.35384  0.35384  0.70768  1
 F  F6  1  0.92242  0.92242  0.84485  1
 Li  Li1  1  0.57549  0.57549  0.15098  1
 Li  Li2  1  0.14655  0.14655  0.29309  1
 Li  Li3  1  0.71538  0.71538  0.43075  1
 Li  Li4  1  0.28462  0.28462  0.56925  1
 Li  Li5  1  0.85345  0.85345  0.70691  1
 Li  Li6  1  0.42451  0.42451  0.84902  1
 Ni  Ni1  1  0.00000  0.00000  0.00000  1
 O  O1  1  0.50000  0.50000  0.00000  1
