CIF file written using JARVIS-Tools package.
data_Te2MoWS2
_symmetry_space_group_name_H-M  'P3m1'
_cell_length_a       3.37205
_cell_length_b       3.37205
_cell_length_c       39.7448
_cell_angle_alpha    89.995
_cell_angle_beta     90
_cell_angle_gamma    120

_symmetry_Int_Tables_number  156
_chemical_formula_structural  Te2MoWS2
_chemical_formula_sum  Te4Mo2W2S4
_cell_volume  391.38062621760804
_cell_formula_units_Z  2
loop_
  _symmetry_equiv_pos_site_id
 _symmetry_equiv_pos_as_xyz
 1  'x, y, z'
loop_
 _atom_site_type_symbol
 _atom_site_label
 _atom_site_symmetry_multiplicity
 _atom_site_fract_x
 _atom_site_fract_y
 _atom_site_fract_z
 _atom_site_fract_occupancy
 Mo  Mo1  1  0.33333  0.66667  0.09400  1
 Mo  Mo2  1  0.33325  0.66650  0.47105  1
 S  S1  1  0.33329  0.66658  0.69578  1
 S  S2  1  0.66669  0.33338  0.05597  1
 S  S3  1  0.66664  0.33329  0.13208  1
 S  S4  1  0.33334  0.66668  0.61936  1
 Te  Te1  1  0.33339  0.66679  0.32817  1
 Te  Te2  1  0.66662  0.33325  0.42344  1
 Te  Te3  1  0.66655  0.33311  0.51868  1
 Te  Te4  1  0.33346  0.66693  0.23234  1
 W  W1  1  0.66676  0.33353  0.28027  1
 W  W2  1  0.66665  0.33330  0.65760  1
