CIF file written using JARVIS-Tools package.
data_Li3Co2NiO6
_symmetry_space_group_name_H-M  'C2/m'
_cell_length_a       2.84156
_cell_length_b       5.68804
_cell_length_c       6.436
_cell_angle_alpha    102.294
_cell_angle_beta     102.751
_cell_angle_gamma    89.9975

_symmetry_Int_Tables_number  12
_chemical_formula_structural  Li3Co2NiO6
_chemical_formula_sum  Li3Co2NiO6
_cell_volume  99.0118518874796
_cell_formula_units_Z  1
loop_
  _symmetry_equiv_pos_site_id
 _symmetry_equiv_pos_as_xyz
 1  'x, y, z'
loop_
 _atom_site_type_symbol
 _atom_site_label
 _atom_site_symmetry_multiplicity
 _atom_site_fract_x
 _atom_site_fract_y
 _atom_site_fract_z
 _atom_site_fract_occupancy
 Co  Co1  1  0.00061  0.00248  0.00401  1
 Co  Co2  1  0.66418  0.33511  0.33119  1
 Li  Li1  1  0.00035  0.50723  0.00364  1
 Li  Li2  1  0.33238  0.16881  0.66759  1
 Li  Li3  1  0.66444  0.83041  0.33160  1
 Ni  Ni1  1  0.33240  0.66880  0.66760  1
 O  O1  1  0.49959  0.77467  0.00194  1
 O  O2  1  0.82085  0.42861  0.64459  1
 O  O3  1  0.15832  0.10247  0.31946  1
 O  O4  1  0.84394  0.90898  0.69061  1
 O  O5  1  0.16520  0.56292  0.33326  1
 O  O6  1  0.50647  0.23512  0.01574  1
