CIF file written using JARVIS-Tools package.
data_USeO5
_symmetry_space_group_name_H-M  'P2_1/m'
_cell_length_a       4.20861
_cell_length_b       5.35811
_cell_length_c       9.41482
_cell_angle_alpha    90
_cell_angle_beta     90
_cell_angle_gamma    96.8586

_symmetry_Int_Tables_number  11
_chemical_formula_structural  USeO5
_chemical_formula_sum  U2Se2O0
_cell_volume  210.78716765743
_cell_formula_units_Z  2
loop_
  _symmetry_equiv_pos_site_id
 _symmetry_equiv_pos_as_xyz
 1  'x, y, z'
loop_
 _atom_site_type_symbol
 _atom_site_label
 _atom_site_symmetry_multiplicity
 _atom_site_fract_x
 _atom_site_fract_y
 _atom_site_fract_z
 _atom_site_fract_occupancy
 O  O1  1  0.04477  0.29661  0.40474  1
 O  O2  1  0.95523  0.70339  0.90474  1
 O  O3  1  0.95523  0.70339  0.59526  1
 O  O4  1  0.04477  0.29661  0.09526  1
 O  O5  1  0.99883  0.78169  0.25000  1
 O  O6  1  0.00117  0.21831  0.75000  1
 O  O7  1  0.48945  0.86597  0.10420  1
 O  O8  1  0.51055  0.13403  0.60420  1
 O  O9  1  0.51055  0.13403  0.89580  1
 O  O10  1  0.48945  0.86597  0.39580  1
 Se  Se1  1  0.62588  0.32722  0.75000  1
 Se  Se2  1  0.37412  0.67278  0.25000  1
 U  U1  1  0.00000  0.00000  0.50000  1
 U  U2  1  0.00000  0.00000  0.00000  1
