CIF file written using JARVIS-Tools package.
data_K2CdO2
_symmetry_space_group_name_H-M  'Pbcn'
_cell_length_a       6.27181
_cell_length_b       6.19032
_cell_length_c       9.9592
_cell_angle_alpha    90
_cell_angle_beta     90
_cell_angle_gamma    90

_symmetry_Int_Tables_number  60
_chemical_formula_structural  K2CdO2
_chemical_formula_sum  K8Cd4O8
_cell_volume  386.66086511601986
_cell_formula_units_Z  4
loop_
  _symmetry_equiv_pos_site_id
 _symmetry_equiv_pos_as_xyz
 1  'x, y, z'
loop_
 _atom_site_type_symbol
 _atom_site_label
 _atom_site_symmetry_multiplicity
 _atom_site_fract_x
 _atom_site_fract_y
 _atom_site_fract_z
 _atom_site_fract_occupancy
 Cd  Cd1  1  0.75000  0.45671  0.50000  1
 Cd  Cd2  1  0.75000  0.95671  0.00000  1
 Cd  Cd3  1  0.25000  0.04329  0.00000  1
 Cd  Cd4  1  0.25000  0.54329  0.50000  1
 K  K1  1  0.88916  0.89882  0.65542  1
 K  K2  1  0.38916  0.10118  0.65542  1
 K  K3  1  0.61084  0.39882  0.15542  1
 K  K4  1  0.61084  0.89882  0.34458  1
 K  K5  1  0.38916  0.60118  0.84458  1
 K  K6  1  0.88916  0.39882  0.84458  1
 K  K7  1  0.11084  0.10118  0.34458  1
 K  K8  1  0.11084  0.60118  0.15542  1
 O  O1  1  0.02235  0.79837  0.90016  1
 O  O2  1  0.97765  0.70163  0.40016  1
 O  O3  1  0.02235  0.29837  0.59984  1
 O  O4  1  0.97765  0.20163  0.09984  1
 O  O5  1  0.47765  0.79837  0.09984  1
 O  O6  1  0.47765  0.29837  0.40016  1
 O  O7  1  0.52235  0.70163  0.59984  1
 O  O8  1  0.52235  0.20163  0.90016  1
