CIF file written using JARVIS-Tools package.
data_Li8CrFe3O12
_symmetry_space_group_name_H-M  'P2'
_cell_length_a       4.83925
_cell_length_b       4.84083
_cell_length_c       8.25333
_cell_angle_alpha    90.0006
_cell_angle_beta     89.9992
_cell_angle_gamma    89.868

_symmetry_Int_Tables_number  3
_chemical_formula_structural  Li8CrFe3O12
_chemical_formula_sum  Li8CrFe3O2
_cell_volume  193.34220422634633
_cell_formula_units_Z  1
loop_
  _symmetry_equiv_pos_site_id
 _symmetry_equiv_pos_as_xyz
 1  'x, y, z'
loop_
 _atom_site_type_symbol
 _atom_site_label
 _atom_site_symmetry_multiplicity
 _atom_site_fract_x
 _atom_site_fract_y
 _atom_site_fract_z
 _atom_site_fract_occupancy
 Cr  Cr1  1  0.00000  0.00000  0.89853  1
 Fe  Fe1  1  0.00000  0.50000  0.58345  1
 Fe  Fe2  1  0.50000  -0.00000  0.08666  1
 Fe  Fe3  1  0.50000  0.50000  0.40174  1
 Li  Li1  1  0.50001  0.00001  0.73187  1
 Li  Li2  1  0.50000  -0.00000  0.41853  1
 Li  Li3  1  -0.00000  0.50000  0.23400  1
 Li  Li4  1  0.49999  0.50000  0.06850  1
 Li  Li5  1  0.00000  0.00000  0.56248  1
 Li  Li6  1  0.00000  -0.00000  0.25155  1
 Li  Li7  1  0.99999  0.50000  0.92306  1
 Li  Li8  1  0.50000  0.50000  0.75402  1
 O  O1  1  0.32792  0.21758  0.92010  1
 O  O2  1  0.32623  0.28442  0.56762  1
 O  O3  1  0.35202  0.24905  0.24426  1
 O  O4  1  0.64799  0.75095  0.24426  1
 O  O5  1  0.67378  0.71558  0.56762  1
 O  O6  1  0.82239  0.21498  0.06865  1
 O  O7  1  0.82521  0.28622  0.41851  1
 O  O8  1  0.86114  0.25268  0.74188  1
 O  O9  1  0.17480  0.71378  0.41852  1
 O  O10  1  0.17762  0.78501  0.06865  1
 O  O11  1  0.67208  0.78242  0.92010  1
 O  O12  1  0.13886  0.74732  0.74188  1
