CIF file written using JARVIS-Tools package.
data_Li2TiCo2O5
_symmetry_space_group_name_H-M  'C2/c'
_cell_length_a       5.0501
_cell_length_b       5.01771
_cell_length_c       7.75747
_cell_angle_alpha    84.0668
_cell_angle_beta     71.0066
_cell_angle_gamma    71.4909

_symmetry_Int_Tables_number  15
_chemical_formula_structural  Li2TiCo2O5
_chemical_formula_sum  Li4Ti2Co4O0
_cell_volume  176.25706988015486
_cell_formula_units_Z  2
loop_
  _symmetry_equiv_pos_site_id
 _symmetry_equiv_pos_as_xyz
 1  'x, y, z'
loop_
 _atom_site_type_symbol
 _atom_site_label
 _atom_site_symmetry_multiplicity
 _atom_site_fract_x
 _atom_site_fract_y
 _atom_site_fract_z
 _atom_site_fract_occupancy
 Co  Co1  1  0.40239  0.00002  0.19521  1
 Co  Co2  1  0.59772  0.99988  0.80454  1
 Co  Co3  1  0.49757  0.50018  0.00479  1
 Co  Co4  1  0.30226  0.49996  0.39546  1
 Li  Li1  1  0.19954  0.99996  0.60090  1
 Li  Li2  1  0.89734  0.50000  0.20532  1
 Li  Li3  1  0.70048  0.49994  0.59910  1
 Li  Li4  1  0.00260  0.00007  0.99468  1
 O  O1  1  0.55919  0.76438  0.39837  1
 O  O2  1  0.95003  0.74996  0.59998  1
 O  O3  1  0.04244  0.23558  0.39838  1
 O  O4  1  0.34081  0.73563  0.80160  1
 O  O5  1  0.45001  0.24996  0.60002  1
 O  O6  1  0.13385  0.75703  0.20719  1
 O  O7  1  0.24110  0.25703  0.99281  1
 O  O8  1  0.85752  0.26443  0.80164  1
 O  O9  1  0.65895  0.24303  0.20718  1
 O  O10  1  0.76619  0.74303  0.99282  1
 Ti  Ti1  1  0.80116  0.99998  0.39766  1
 Ti  Ti2  1  0.09885  0.49995  0.80234  1
