CIF file written using JARVIS-Tools package.
data_LiVF6
_symmetry_space_group_name_H-M  'P2_1/c'
_cell_length_a       5.04146
_cell_length_b       5.28348
_cell_length_c       8.88557
_cell_angle_alpha    90
_cell_angle_beta     124.359
_cell_angle_gamma    90

_symmetry_Int_Tables_number  14
_chemical_formula_structural  LiVF6
_chemical_formula_sum  Li2V2F2
_cell_volume  195.38437243715697
_cell_formula_units_Z  2
loop_
  _symmetry_equiv_pos_site_id
 _symmetry_equiv_pos_as_xyz
 1  'x, y, z'
loop_
 _atom_site_type_symbol
 _atom_site_label
 _atom_site_symmetry_multiplicity
 _atom_site_fract_x
 _atom_site_fract_y
 _atom_site_fract_z
 _atom_site_fract_occupancy
 F  F1  1  0.12813  0.02216  0.23482  1
 F  F2  1  0.76834  0.28643  0.94783  1
 F  F3  1  0.34355  0.31486  0.55266  1
 F  F4  1  0.65645  0.81486  0.94734  1
 F  F5  1  0.23166  0.78643  0.55217  1
 F  F6  1  0.87187  0.52216  0.26518  1
 F  F7  1  0.12813  0.47784  0.73482  1
 F  F8  1  0.76834  0.21357  0.44783  1
 F  F9  1  0.34355  0.18514  0.05266  1
 F  F10  1  0.65645  0.68514  0.44734  1
 F  F11  1  0.23166  0.71357  0.05217  1
 F  F12  1  0.87187  0.97784  0.76518  1
 Li  Li1  1  0.50000  0.00000  0.50000  1
 Li  Li2  1  0.50000  0.50000  0.00000  1
 V  V1  1  0.00000  0.00000  0.00000  1
 V  V2  1  0.00000  0.50000  0.50000  1
