CIF file written using JARVIS-Tools package.
data_Li2TiFe2O5
_symmetry_space_group_name_H-M  'C2/c'
_cell_length_a       5.07874
_cell_length_b       5.03369
_cell_length_c       7.77909
_cell_angle_alpha    84.4072
_cell_angle_beta     70.946
_cell_angle_gamma    72.6324

_symmetry_Int_Tables_number  15
_chemical_formula_structural  Li2TiFe2O5
_chemical_formula_sum  Li4Ti2Fe4O0
_cell_volume  179.4053185625611
_cell_formula_units_Z  2
loop_
  _symmetry_equiv_pos_site_id
 _symmetry_equiv_pos_as_xyz
 1  'x, y, z'
loop_
 _atom_site_type_symbol
 _atom_site_label
 _atom_site_symmetry_multiplicity
 _atom_site_fract_x
 _atom_site_fract_y
 _atom_site_fract_z
 _atom_site_fract_occupancy
 Fe  Fe1  1  0.40908  0.99999  0.18185  1
 Fe  Fe2  1  0.59598  0.00001  0.80806  1
 Fe  Fe3  1  0.49092  0.49999  0.01815  1
 Fe  Fe4  1  0.30403  0.50000  0.39195  1
 Li  Li1  1  0.20015  0.00001  0.59968  1
 Li  Li2  1  0.89731  0.50000  0.20542  1
 Li  Li3  1  0.69982  0.50002  0.60032  1
 Li  Li4  1  0.00273  0.99999  0.99458  1
 O  O1  1  0.55562  0.76203  0.39748  1
 O  O2  1  0.94999  0.75000  0.60000  1
 O  O3  1  0.04689  0.23797  0.39748  1
 O  O4  1  0.34437  0.73796  0.80252  1
 O  O5  1  0.45000  0.25000  0.60000  1
 O  O6  1  0.12515  0.76117  0.20820  1
 O  O7  1  0.23333  0.26118  0.99180  1
 O  O8  1  0.85311  0.26203  0.80252  1
 O  O9  1  0.66667  0.23882  0.20820  1
 O  O10  1  0.77486  0.73883  0.99180  1
 Ti  Ti1  1  0.80057  0.00001  0.39884  1
 Ti  Ti2  1  0.09941  0.50001  0.80116  1
