CIF file written using JARVIS-Tools package.
data_V3O5F
_symmetry_space_group_name_H-M  'P1'
_cell_length_a       4.99205
_cell_length_b       4.96935
_cell_length_c       5.35612
_cell_angle_alpha    91.3723
_cell_angle_beta     115.844
_cell_angle_gamma    119.629

_symmetry_Int_Tables_number  1
_chemical_formula_structural  V3O5F
_chemical_formula_sum  V3O5F
_cell_volume  98.95589832830414
_cell_formula_units_Z  1
loop_
  _symmetry_equiv_pos_site_id
 _symmetry_equiv_pos_as_xyz
 1  'x, y, z'
loop_
 _atom_site_type_symbol
 _atom_site_label
 _atom_site_symmetry_multiplicity
 _atom_site_fract_x
 _atom_site_fract_y
 _atom_site_fract_z
 _atom_site_fract_occupancy
 F  F1  1  0.17357  0.71169  0.25631  1
 O  O1  1  0.52774  0.59184  0.76370  1
 O  O2  1  0.18014  0.92633  0.76959  1
 O  O3  1  0.86012  0.25767  0.79251  1
 O  O4  1  0.74344  0.05738  0.24672  1
 O  O5  1  0.54948  0.48941  0.24708  1
 V  V1  1  0.31375  0.64368  0.94093  1
 V  V2  1  0.72304  0.85477  0.55064  1
 V  V3  1  0.65322  0.31336  0.02067  1
