CIF file written using JARVIS-Tools package.
data_CrSbS3
_symmetry_space_group_name_H-M  'Pnma'
_cell_length_a       3.65766
_cell_length_b       8.79307
_cell_length_c       12.7787
_cell_angle_alpha    90
_cell_angle_beta     90
_cell_angle_gamma    90

_symmetry_Int_Tables_number  62
_chemical_formula_structural  CrSbS3
_chemical_formula_sum  Cr4Sb4S2
_cell_volume  410.99023628393337
_cell_formula_units_Z  4
loop_
  _symmetry_equiv_pos_site_id
 _symmetry_equiv_pos_as_xyz
 1  'x, y, z'
loop_
 _atom_site_type_symbol
 _atom_site_label
 _atom_site_symmetry_multiplicity
 _atom_site_fract_x
 _atom_site_fract_y
 _atom_site_fract_z
 _atom_site_fract_occupancy
 Cr  Cr1  1  0.25000  0.65747  0.45578  1
 Cr  Cr2  1  0.75000  0.34253  0.54422  1
 Cr  Cr3  1  0.25000  0.15747  0.04422  1
 Cr  Cr4  1  0.75000  0.84253  0.95578  1
 S  S1  1  0.25000  0.67286  0.01302  1
 S  S2  1  0.75000  0.82714  0.51302  1
 S  S3  1  0.25000  0.17286  0.48698  1
 S  S4  1  0.25000  0.99782  0.89488  1
 S  S5  1  0.75000  0.00218  0.10512  1
 S  S6  1  0.25000  0.49782  0.60512  1
 S  S7  1  0.25000  0.28825  0.21106  1
 S  S8  1  0.75000  0.50218  0.39488  1
 S  S9  1  0.75000  0.21175  0.71106  1
 S  S10  1  0.75000  0.32714  0.98698  1
 S  S11  1  0.75000  0.71175  0.78894  1
 S  S12  1  0.25000  0.78825  0.28894  1
 Sb  Sb1  1  0.75000  0.97895  0.33780  1
 Sb  Sb2  1  0.75000  0.47895  0.16220  1
 Sb  Sb3  1  0.25000  0.52105  0.83780  1
 Sb  Sb4  1  0.25000  0.02105  0.66220  1
