CIF file written using JARVIS-Tools package.
data_MgTiGe2O6
_symmetry_space_group_name_H-M  'P2_1/c'
_cell_length_a       5.35681
_cell_length_b       8.48447
_cell_length_c       12.0509
_cell_angle_alpha    90
_cell_angle_beta     108.083
_cell_angle_gamma    90

_symmetry_Int_Tables_number  14
_chemical_formula_structural  MgTiGe2O6
_chemical_formula_sum  Mg4Ti4Ge8O24
_cell_volume  520.6578870901714
_cell_formula_units_Z  4
loop_
  _symmetry_equiv_pos_site_id
 _symmetry_equiv_pos_as_xyz
 1  'x, y, z'
loop_
 _atom_site_type_symbol
 _atom_site_label
 _atom_site_symmetry_multiplicity
 _atom_site_fract_x
 _atom_site_fract_y
 _atom_site_fract_z
 _atom_site_fract_occupancy
 Ge  Ge1  1  0.23054  0.64734  0.92553  1
 Ge  Ge2  1  0.26946  0.14734  0.07447  1
 Ge  Ge3  1  0.76946  0.35266  0.07447  1
 Ge  Ge4  1  0.73054  0.85266  0.92553  1
 Ge  Ge5  1  0.28585  0.84962  0.53082  1
 Ge  Ge6  1  0.21415  0.34962  0.46918  1
 Ge  Ge7  1  0.78585  0.65038  0.53082  1
 Ge  Ge8  1  0.71415  0.15038  0.46918  1
 Mg  Mg1  1  0.41167  0.45770  0.25771  1
 Mg  Mg2  1  0.91167  0.04230  0.25771  1
 Mg  Mg3  1  0.58833  0.54230  0.74229  1
 Mg  Mg4  1  0.08833  0.95770  0.74229  1
 O  O1  1  0.53406  0.70391  0.59674  1
 O  O2  1  0.03406  0.79609  0.59674  1
 O  O3  1  0.46594  0.29609  0.40326  1
 O  O4  1  0.13366  0.53728  0.41136  1
 O  O5  1  0.13884  0.31660  0.15374  1
 O  O6  1  0.36116  0.81660  0.84626  1
 O  O7  1  0.86116  0.68340  0.84626  1
 O  O8  1  0.63884  0.18340  0.15374  1
 O  O9  1  0.63366  0.96272  0.41136  1
 O  O10  1  0.86634  0.46272  0.58864  1
 O  O11  1  0.96594  0.20391  0.40326  1
 O  O12  1  0.64447  0.64860  0.37788  1
 O  O13  1  0.28393  0.50349  0.80511  1
 O  O14  1  0.30919  0.16423  0.78969  1
 O  O15  1  0.71607  0.49651  0.19489  1
 O  O16  1  0.80919  0.33577  0.78969  1
 O  O17  1  0.69081  0.83577  0.21031  1
 O  O18  1  0.19081  0.66423  0.21031  1
 O  O19  1  0.36634  0.03728  0.58864  1
 O  O20  1  0.35553  0.35140  0.62212  1
 O  O21  1  0.14447  0.85140  0.37788  1
 O  O22  1  0.21607  0.00349  0.19489  1
 O  O23  1  0.78393  -0.00349  0.80511  1
 O  O24  1  0.85553  0.14860  0.62212  1
 Ti  Ti1  1  0.41755  0.84377  0.27518  1
 Ti  Ti2  1  0.08245  0.34377  0.72482  1
 Ti  Ti3  1  0.58245  0.15623  0.72482  1
 Ti  Ti4  1  0.91755  0.65623  0.27518  1
