CIF file written using JARVIS-Tools package.
data_LiVF6
_symmetry_space_group_name_H-M  'P-1'
_cell_length_a       4.96097
_cell_length_b       5.28912
_cell_length_c       4.96734
_cell_angle_alpha    118.124
_cell_angle_beta     119.868
_cell_angle_gamma    89.9612

_symmetry_Int_Tables_number  2
_chemical_formula_structural  LiVF6
_chemical_formula_sum  LiVF6
_cell_volume  94.89794209779109
_cell_formula_units_Z  1
loop_
  _symmetry_equiv_pos_site_id
 _symmetry_equiv_pos_as_xyz
 1  'x, y, z'
loop_
 _atom_site_type_symbol
 _atom_site_label
 _atom_site_symmetry_multiplicity
 _atom_site_fract_x
 _atom_site_fract_y
 _atom_site_fract_z
 _atom_site_fract_occupancy
 F  F1  1  0.74890  0.21689  0.08397  1
 F  F2  1  0.62849  0.74648  0.49319  1
 F  F3  1  0.09838  0.21634  0.84266  1
 F  F4  1  0.86864  0.74604  0.08221  1
 F  F5  1  0.33854  0.21588  0.43166  1
 F  F6  1  0.21810  0.74547  0.84089  1
 Li  Li1  1  0.48351  0.48119  0.96243  1
 V  V1  1  0.98351  0.98119  0.96243  1
