CIF file written using JARVIS-Tools package.
data_MgCo2O4
_symmetry_space_group_name_H-M  'Fd-3m'
_cell_length_a       5.76444
_cell_length_b       5.76451
_cell_length_c       5.76436
_cell_angle_alpha    60.0004
_cell_angle_beta     59.9999
_cell_angle_gamma    60.001

_symmetry_Int_Tables_number  227
_chemical_formula_structural  MgCo2O4
_chemical_formula_sum  Mg2Co4O8
_cell_volume  135.44386493702777
_cell_formula_units_Z  2
loop_
  _symmetry_equiv_pos_site_id
 _symmetry_equiv_pos_as_xyz
 1  'x, y, z'
loop_
 _atom_site_type_symbol
 _atom_site_label
 _atom_site_symmetry_multiplicity
 _atom_site_fract_x
 _atom_site_fract_y
 _atom_site_fract_z
 _atom_site_fract_occupancy
 Co  Co1  1  0.50000  0.50000  0.00000  1
 Co  Co2  1  0.50000  -0.00000  0.50000  1
 Co  Co3  1  0.00000  0.50000  0.50000  1
 Co  Co4  1  0.50000  0.50000  0.50000  1
 Mg  Mg1  1  0.12500  0.12500  0.12500  1
 Mg  Mg2  1  0.87500  0.87500  0.87500  1
 O  O1  1  0.26414  0.26415  0.26414  1
 O  O2  1  0.70757  0.26415  0.26414  1
 O  O3  1  0.73586  0.73585  0.29244  1
 O  O4  1  0.73586  0.29243  0.73586  1
 O  O5  1  0.26414  0.70757  0.26414  1
 O  O6  1  0.26414  0.26415  0.70756  1
 O  O7  1  0.29244  0.73585  0.73586  1
 O  O8  1  0.73586  0.73585  0.73586  1
