CIF file written using JARVIS-Tools package.
data_Dy2Ge2O7
_symmetry_space_group_name_H-M  'C2'
_cell_length_a       5.78754
_cell_length_b       5.78754
_cell_length_c       4.99549
_cell_angle_alpha    82.674
_cell_angle_beta     97.326
_cell_angle_gamma    75.1135

_symmetry_Int_Tables_number  5
_chemical_formula_structural  Dy2Ge2O7
_chemical_formula_sum  Dy2Ge2O7
_cell_volume  158.13291431572193
_cell_formula_units_Z  1
loop_
  _symmetry_equiv_pos_site_id
 _symmetry_equiv_pos_as_xyz
 1  'x, y, z'
loop_
 _atom_site_type_symbol
 _atom_site_label
 _atom_site_symmetry_multiplicity
 _atom_site_fract_x
 _atom_site_fract_y
 _atom_site_fract_z
 _atom_site_fract_occupancy
 Dy  Dy1  1  0.69634  0.69634  0.00000  1
 Dy  Dy2  1  0.30644  0.30644  -0.00000  1
 Ge  Ge1  1  0.23421  0.77565  0.41140  1
 Ge  Ge2  1  0.77565  0.23421  0.58860  1
 O  O1  1  0.08179  0.60891  0.21364  1
 O  O2  1  0.40968  0.91830  0.21460  1
 O  O3  1  0.39911  0.60193  0.72692  1
 O  O4  1  0.02845  0.02845  0.50000  1
 O  O5  1  0.60193  0.39911  0.27308  1
 O  O6  1  0.91830  0.40968  0.78540  1
 O  O7  1  0.60891  0.08179  0.78636  1
