CIF file written using JARVIS-Tools package.
data_LiBi3Br2O4
_symmetry_space_group_name_H-M  'Cmcm'
_cell_length_a       5.54319
_cell_length_b       6.92067
_cell_length_c       11.0593
_cell_angle_alpha    90
_cell_angle_beta     90
_cell_angle_gamma    113.608

_symmetry_Int_Tables_number  63
_chemical_formula_structural  LiBi3Br2O4
_chemical_formula_sum  Li2Bi6Br4O8
_cell_volume  388.75580234175385
_cell_formula_units_Z  2
loop_
  _symmetry_equiv_pos_site_id
 _symmetry_equiv_pos_as_xyz
 1  'x, y, z'
loop_
 _atom_site_type_symbol
 _atom_site_label
 _atom_site_symmetry_multiplicity
 _atom_site_fract_x
 _atom_site_fract_y
 _atom_site_fract_z
 _atom_site_fract_occupancy
 Bi  Bi1  1  0.14829  0.29658  -0.00000  1
 Bi  Bi2  1  0.65917  0.31834  0.25807  1
 Bi  Bi3  1  0.34083  0.68166  0.24193  1
 Bi  Bi4  1  0.85171  0.70342  0.50000  1
 Bi  Bi5  1  0.65917  0.31834  0.74193  1
 Bi  Bi6  1  0.34083  0.68166  0.75807  1
 Br  Br1  1  0.49779  0.99558  0.50000  1
 Br  Br2  1  0.50221  0.00442  -0.00000  1
 Br  Br3  1  0.00000  0.00000  0.75000  1
 Br  Br4  1  -0.00000  0.00000  0.25000  1
 Li  Li1  1  0.78549  0.57098  -0.00000  1
 Li  Li2  1  0.21451  0.42902  0.50000  1
 O  O1  1  0.48985  0.48427  0.12583  1
 O  O2  1  0.99441  0.48427  0.12583  1
 O  O3  1  0.51015  0.51573  0.37417  1
 O  O4  1  0.00559  0.51573  0.37417  1
 O  O5  1  0.51015  0.51573  0.62583  1
 O  O6  1  0.48985  0.48427  0.87417  1
 O  O7  1  0.00559  0.51573  0.62583  1
 O  O8  1  0.99441  0.48427  0.87417  1
