CIF file written using JARVIS-Tools package.
data_LiVF3
_symmetry_space_group_name_H-M  'R-3'
_cell_length_a       5.26729
_cell_length_b       5.52801
_cell_length_c       5.26729
_cell_angle_alpha    90
_cell_angle_beta     60
_cell_angle_gamma    61.5483

_symmetry_Int_Tables_number  148
_chemical_formula_structural  LiVF3
_chemical_formula_sum  Li2V2F6
_cell_volume  110.91866103783845
_cell_formula_units_Z  2
loop_
  _symmetry_equiv_pos_site_id
 _symmetry_equiv_pos_as_xyz
 1  'x, y, z'
loop_
 _atom_site_type_symbol
 _atom_site_label
 _atom_site_symmetry_multiplicity
 _atom_site_fract_x
 _atom_site_fract_y
 _atom_site_fract_z
 _atom_site_fract_occupancy
 F  F1  1  0.50620  0.24900  0.05699  1
 F  F2  1  0.18780  0.24900  0.75520  1
 F  F3  1  0.19201  0.75100  0.56320  1
 F  F4  1  0.80799  0.24900  0.43680  1
 F  F5  1  0.81220  0.75100  0.24480  1
 F  F6  1  0.49380  0.75100  0.94301  1
 Li  Li1  1  0.72436  0.41346  0.13782  1
 Li  Li2  1  0.27564  0.58654  0.86218  1
 V  V1  1  0.31055  0.03418  0.34473  1
 V  V2  1  0.68945  0.96582  0.65527  1
