CIF file written using JARVIS-Tools package.
data_TbLi2F6
_symmetry_space_group_name_H-M  'P2_1/c'
_cell_length_a       7.86318
_cell_length_b       4.32079
_cell_length_c       12.0622
_cell_angle_alpha    90
_cell_angle_beta     104.534
_cell_angle_gamma    90

_symmetry_Int_Tables_number  14
_chemical_formula_structural  TbLi2F6
_chemical_formula_sum  Tb4Li8F24
_cell_volume  396.70037605831214
_cell_formula_units_Z  4
loop_
  _symmetry_equiv_pos_site_id
 _symmetry_equiv_pos_as_xyz
 1  'x, y, z'
loop_
 _atom_site_type_symbol
 _atom_site_label
 _atom_site_symmetry_multiplicity
 _atom_site_fract_x
 _atom_site_fract_y
 _atom_site_fract_z
 _atom_site_fract_occupancy
 F  F1  1  0.60879  0.16239  0.83551  1
 F  F2  1  0.30034  0.05051  0.94603  1
 F  F3  1  0.97785  0.25461  0.94237  1
 F  F4  1  0.10970  0.83839  0.31695  1
 F  F5  1  0.53483  0.42359  0.10512  1
 F  F6  1  0.89030  0.16161  0.68305  1
 F  F7  1  0.10970  0.66161  0.81695  1
 F  F8  1  0.02215  0.74539  0.05763  1
 F  F9  1  0.89030  0.33839  0.18305  1
 F  F10  1  0.69966  0.55051  0.55397  1
 F  F11  1  0.46517  0.92359  0.39488  1
 F  F12  1  0.75759  0.71330  0.82739  1
 F  F13  1  0.75759  0.78670  0.32739  1
 F  F14  1  0.24241  0.28670  0.17261  1
 F  F15  1  0.46517  0.57641  0.89488  1
 F  F16  1  0.53483  0.07641  0.60512  1
 F  F17  1  0.39121  0.66239  0.66449  1
 F  F18  1  0.24241  0.21330  0.67261  1
 F  F19  1  0.60879  0.33761  0.33551  1
 F  F20  1  0.39121  0.83761  0.16449  1
 F  F21  1  0.30034  0.44949  0.44603  1
 F  F22  1  0.69966  0.94949  0.05397  1
 F  F23  1  0.02215  0.75461  0.55763  1
 F  F24  1  0.97785  0.24539  0.44237  1
 Li  Li1  1  0.94536  0.97157  0.82182  1
 Li  Li2  1  0.94536  0.52843  0.32182  1
 Li  Li3  1  0.05464  0.02843  0.17818  1
 Li  Li4  1  0.61998  0.44693  0.69594  1
 Li  Li5  1  0.61998  0.05307  0.19594  1
 Li  Li6  1  0.38002  0.55307  0.30406  1
 Li  Li7  1  0.38002  0.94693  0.80406  1
 Li  Li8  1  0.05464  0.47157  0.67818  1
 Tb  Tb1  1  0.74913  0.03528  0.50056  1
 Tb  Tb2  1  0.74913  0.46472  0.00056  1
 Tb  Tb3  1  0.25087  0.96472  0.49944  1
 Tb  Tb4  1  0.25087  0.53528  0.99944  1
