CIF file written using JARVIS-Tools package.
data_VOF3
_symmetry_space_group_name_H-M  'P4_1'
_cell_length_a       5.23793
_cell_length_b       5.23793
_cell_length_c       9.0222
_cell_angle_alpha    90
_cell_angle_beta     90
_cell_angle_gamma    90

_symmetry_Int_Tables_number  76
_chemical_formula_structural  VOF3
_chemical_formula_sum  V4O4F2
_cell_volume  247.5322690794001
_cell_formula_units_Z  4
loop_
  _symmetry_equiv_pos_site_id
 _symmetry_equiv_pos_as_xyz
 1  'x, y, z'
loop_
 _atom_site_type_symbol
 _atom_site_label
 _atom_site_symmetry_multiplicity
 _atom_site_fract_x
 _atom_site_fract_y
 _atom_site_fract_z
 _atom_site_fract_occupancy
 F  F1  1  0.66565  0.42731  0.85108  1
 F  F2  1  0.05782  0.78021  0.12614  1
 F  F3  1  0.85826  0.43931  0.37267  1
 F  F4  1  0.21979  0.05782  0.37614  1
 F  F5  1  0.33435  0.57269  0.35108  1
 F  F6  1  0.14174  0.56069  0.87267  1
 F  F7  1  0.42731  0.33435  0.60108  1
 F  F8  1  0.57269  0.66565  0.10108  1
 F  F9  1  0.56069  0.85826  0.62267  1
 F  F10  1  0.94218  0.21979  0.62614  1
 F  F11  1  0.78021  0.94218  0.87614  1
 F  F12  1  0.43931  0.14174  0.12267  1
 O  O1  1  0.94098  0.29850  0.08749  1
 O  O2  1  0.70150  0.94098  0.33749  1
 O  O3  1  0.29850  0.05902  0.83749  1
 O  O4  1  0.05902  0.70150  0.58749  1
 V  V1  1  0.89482  0.55995  0.00390  1
 V  V2  1  0.55995  0.10518  0.75390  1
 V  V3  1  0.44005  0.89482  0.25390  1
 V  V4  1  0.10518  0.44005  0.50390  1
