CIF file written using JARVIS-Tools package.
data_Li2VF4
_symmetry_space_group_name_H-M  'Pbam'
_cell_length_a       3.18479
_cell_length_b       9.53374
_cell_length_c       5.01171
_cell_angle_alpha    90
_cell_angle_beta     90.008
_cell_angle_gamma    90

_symmetry_Int_Tables_number  55
_chemical_formula_structural  Li2VF4
_chemical_formula_sum  Li4V2F8
_cell_volume  152.17039688103355
_cell_formula_units_Z  2
loop_
  _symmetry_equiv_pos_site_id
 _symmetry_equiv_pos_as_xyz
 1  'x, y, z'
loop_
 _atom_site_type_symbol
 _atom_site_label
 _atom_site_symmetry_multiplicity
 _atom_site_fract_x
 _atom_site_fract_y
 _atom_site_fract_z
 _atom_site_fract_occupancy
 F  F1  1  0.00007  0.13136  0.67258  1
 F  F2  1  0.00007  0.36864  0.17258  1
 F  F3  1  0.49999  0.87737  0.85080  1
 F  F4  1  0.49999  0.62263  0.35080  1
 F  F5  1  0.50001  0.37737  0.64920  1
 F  F6  1  0.50001  0.12263  0.14920  1
 F  F7  1  -0.00007  0.63136  0.82742  1
 F  F8  1  -0.00007  0.86864  0.32742  1
 Li  Li1  1  0.49996  0.68299  0.98884  1
 Li  Li2  1  0.50004  0.18299  0.51116  1
 Li  Li3  1  0.49996  0.81701  0.48884  1
 Li  Li4  1  0.50004  0.31701  0.01116  1
 V  V1  1  -0.00000  0.50000  0.50000  1
 V  V2  1  0.00000  0.00000  0.00000  1
