CIF file written using JARVIS-Tools package.
data_LiVF6
_symmetry_space_group_name_H-M  'P312'
_cell_length_a       4.53127
_cell_length_b       4.83711
_cell_length_c       4.83695
_cell_angle_alpha    119.998
_cell_angle_beta     90.0042
_cell_angle_gamma    90.0075

_symmetry_Int_Tables_number  149
_chemical_formula_structural  LiVF6
_chemical_formula_sum  LiVF6
_cell_volume  91.81542866864287
_cell_formula_units_Z  1
loop_
  _symmetry_equiv_pos_site_id
 _symmetry_equiv_pos_as_xyz
 1  'x, y, z'
loop_
 _atom_site_type_symbol
 _atom_site_label
 _atom_site_symmetry_multiplicity
 _atom_site_fract_x
 _atom_site_fract_y
 _atom_site_fract_z
 _atom_site_fract_occupancy
 F  F1  1  0.23246  0.29645  0.98632  1
 F  F2  1  0.76757  0.29644  0.31073  1
 F  F3  1  0.76748  0.01382  0.70371  1
 F  F4  1  0.23246  0.01380  0.31074  1
 F  F5  1  0.23237  0.68942  0.70372  1
 F  F6  1  0.76747  0.68941  0.98636  1
 Li  Li1  1  0.49998  0.33325  0.66689  1
 V  V1  1  -0.00003  -0.00011  0.00026  1
