CIF file written using JARVIS-Tools package.
data_Li3MnSi2O7
_symmetry_space_group_name_H-M  'P1'
_cell_length_a       4.62078
_cell_length_b       5.22694
_cell_length_c       6.73912
_cell_angle_alpha    99.6957
_cell_angle_beta     90.6779
_cell_angle_gamma    116.093

_symmetry_Int_Tables_number  1
_chemical_formula_structural  Li3MnSi2O7
_chemical_formula_sum  Li3MnSi2O7
_cell_volume  143.40995120056704
_cell_formula_units_Z  1
loop_
  _symmetry_equiv_pos_site_id
 _symmetry_equiv_pos_as_xyz
 1  'x, y, z'
loop_
 _atom_site_type_symbol
 _atom_site_label
 _atom_site_symmetry_multiplicity
 _atom_site_fract_x
 _atom_site_fract_y
 _atom_site_fract_z
 _atom_site_fract_occupancy
 Li  Li1  1  0.70835  0.41602  0.15130  1
 Li  Li2  1  0.84592  0.71411  0.55015  1
 Li  Li3  1  0.28394  0.57015  0.83235  1
 Mn  Mn1  1  -0.00675  -0.00553  0.00663  1
 O  O1  1  0.75521  0.08378  0.20423  1
 O  O2  1  0.89100  0.45716  0.69223  1
 O  O3  1  0.36792  0.23527  0.88980  1
 O  O4  1  0.68901  0.92166  0.78557  1
 O  O5  1  0.51506  0.57937  0.32945  1
 O  O6  1  0.33873  0.98628  0.50192  1
 O  O7  1  0.13091  0.74271  0.11517  1
 Si  Si1  1  0.58549  0.16331  0.71355  1
 Si  Si2  1  0.43612  0.83561  0.28958  1
