CIF file written using JARVIS-Tools package.
data_KCrCl3
_symmetry_space_group_name_H-M  'R-3c'
_cell_length_a       6.91091
_cell_length_b       6.91091
_cell_length_c       6.9109
_cell_angle_alpha    60.6143
_cell_angle_beta     60.6143
_cell_angle_gamma    60.6143

_symmetry_Int_Tables_number  167
_chemical_formula_structural  KCrCl3
_chemical_formula_sum  K2Cr2Cl6
_cell_volume  236.63152848493317
_cell_formula_units_Z  2
loop_
  _symmetry_equiv_pos_site_id
 _symmetry_equiv_pos_as_xyz
 1  'x, y, z'
loop_
 _atom_site_type_symbol
 _atom_site_label
 _atom_site_symmetry_multiplicity
 _atom_site_fract_x
 _atom_site_fract_y
 _atom_site_fract_z
 _atom_site_fract_occupancy
 Cl  Cl1  1  0.25574  0.80014  0.71127  1
 Cl  Cl2  1  0.80014  0.71127  0.25574  1
 Cl  Cl3  1  0.71127  0.25574  0.80014  1
 Cl  Cl4  1  0.21127  0.30014  0.75574  1
 Cl  Cl5  1  0.75574  0.21127  0.30014  1
 Cl  Cl6  1  0.30014  0.75574  0.21127  1
 Cr  Cr1  1  0.00571  0.00571  0.00571  1
 Cr  Cr2  1  0.50571  0.50571  0.50571  1
 K  K1  1  0.25564  0.25564  0.25564  1
 K  K2  1  0.75564  0.75564  0.75564  1
