CIF file written using JARVIS-Tools package.
data_Li2VF5
_symmetry_space_group_name_H-M  'C2/c'
_cell_length_a       4.88806
_cell_length_b       5.49248
_cell_length_c       6.66109
_cell_angle_alpha    78.037
_cell_angle_beta     111.526
_cell_angle_gamma    89.9979

_symmetry_Int_Tables_number  15
_chemical_formula_structural  Li2VF5
_chemical_formula_sum  Li4V2F0
_cell_volume  162.17796818318823
_cell_formula_units_Z  2
loop_
  _symmetry_equiv_pos_site_id
 _symmetry_equiv_pos_as_xyz
 1  'x, y, z'
loop_
 _atom_site_type_symbol
 _atom_site_label
 _atom_site_symmetry_multiplicity
 _atom_site_fract_x
 _atom_site_fract_y
 _atom_site_fract_z
 _atom_site_fract_occupancy
 F  F1  1  -0.04598  0.74930  0.00067  1
 F  F2  1  0.30733  -0.05110  0.78995  1
 F  F3  1  0.13108  0.33245  0.40971  1
 F  F4  1  0.27619  0.83245  0.40972  1
 F  F5  1  0.48018  0.44890  0.78994  1
 F  F6  1  0.51804  0.54969  0.21140  1
 F  F7  1  0.72204  0.16615  0.59162  1
 F  F8  1  0.04420  0.24931  0.00067  1
 F  F9  1  0.86715  0.66615  0.59162  1
 F  F10  1  0.69089  0.04970  0.21139  1
 Li  Li1  1  0.18911  0.54321  0.91262  1
 Li  Li2  1  0.27716  -0.04459  0.08871  1
 Li  Li3  1  0.72107  0.04320  0.91263  1
 Li  Li4  1  0.80911  0.45540  0.08871  1
 V  V1  1  0.99911  0.99930  0.50067  1
 V  V2  1  0.49910  0.49930  0.50067  1
