CIF file written using JARVIS-Tools package.
data_LiV2OF5
_symmetry_space_group_name_H-M  'Pc'
_cell_length_a       4.66713
_cell_length_b       4.67166
_cell_length_c       10.255
_cell_angle_alpha    90
_cell_angle_beta     116.798
_cell_angle_gamma    90

_symmetry_Int_Tables_number  7
_chemical_formula_structural  LiV2OF5
_chemical_formula_sum  Li2V4O2F0
_cell_volume  199.58006628045175
_cell_formula_units_Z  2
loop_
  _symmetry_equiv_pos_site_id
 _symmetry_equiv_pos_as_xyz
 1  'x, y, z'
loop_
 _atom_site_type_symbol
 _atom_site_label
 _atom_site_symmetry_multiplicity
 _atom_site_fract_x
 _atom_site_fract_y
 _atom_site_fract_z
 _atom_site_fract_occupancy
 F  F1  1  0.36397  0.94927  0.16817  1
 F  F2  1  0.96701  0.55425  0.16731  1
 F  F3  1  0.03908  0.96060  0.83109  1
 F  F4  1  0.96701  0.44575  0.66731  1
 F  F5  1  0.30609  0.44681  0.00203  1
 F  F6  1  0.69472  0.93855  0.50402  1
 F  F7  1  0.30609  0.55319  0.50203  1
 F  F8  1  0.03908  0.03940  0.33109  1
 F  F9  1  0.69472  0.06145  0.00402  1
 F  F10  1  0.36397  0.05073  0.66817  1
 Li  Li1  1  0.00055  0.24274  0.50076  1
 Li  Li2  1  0.00055  0.75726  0.00076  1
 O  O1  1  0.60230  0.45720  0.31240  1
 O  O2  1  0.60230  0.54280  0.81240  1
 V  V1  1  0.67109  0.25759  0.17966  1
 V  V2  1  0.35520  0.72617  0.33455  1
 V  V3  1  0.67109  0.74241  0.67966  1
 V  V4  1  0.35520  0.27383  0.83455  1
