CIF file written using JARVIS-Tools package.
data_MgBi2O4
_symmetry_space_group_name_H-M  'C2/m'
_cell_length_a       3.39484
_cell_length_b       10.1347
_cell_length_c       6.70722
_cell_angle_alpha    72.5629
_cell_angle_beta     75.3392
_cell_angle_gamma    80.3581

_symmetry_Int_Tables_number  12
_chemical_formula_structural  MgBi2O4
_chemical_formula_sum  Mg2Bi4O8
_cell_volume  211.94091076563174
_cell_formula_units_Z  2
loop_
  _symmetry_equiv_pos_site_id
 _symmetry_equiv_pos_as_xyz
 1  'x, y, z'
loop_
 _atom_site_type_symbol
 _atom_site_label
 _atom_site_symmetry_multiplicity
 _atom_site_fract_x
 _atom_site_fract_y
 _atom_site_fract_z
 _atom_site_fract_occupancy
 Bi  Bi1  1  0.61266  0.07958  0.70305  1
 Bi  Bi2  1  0.11265  0.57965  0.20295  1
 Bi  Bi3  1  0.88969  0.39846  0.83011  1
 Bi  Bi4  1  0.38968  0.89853  0.33001  1
 Mg  Mg1  1  0.25113  0.23907  0.26660  1
 Mg  Mg2  1  0.75118  0.73904  0.76647  1
 O  O1  1  0.90490  0.75061  0.44751  1
 O  O2  1  0.40487  0.25056  0.94766  1
 O  O3  1  0.59746  0.72755  0.08541  1
 O  O4  1  0.09743  0.22750  0.58556  1
 O  O5  1  0.22281  0.88789  0.67438  1
 O  O6  1  0.72278  0.38791  0.17446  1
 O  O7  1  0.77952  0.09023  0.35869  1
 O  O8  1  0.27956  0.59021  0.85861  1
