CIF file written using JARVIS-Tools package.
data_Li8TiMn3O12
_symmetry_space_group_name_H-M  'P2'
_cell_length_a       4.89027
_cell_length_b       4.90284
_cell_length_c       8.36232
_cell_angle_alpha    89.9986
_cell_angle_beta     90.0021
_cell_angle_gamma    89.9561

_symmetry_Int_Tables_number  3
_chemical_formula_structural  Li8TiMn3O12
_chemical_formula_sum  Li8TiMn3O2
_cell_volume  200.4968181894309
_cell_formula_units_Z  1
loop_
  _symmetry_equiv_pos_site_id
 _symmetry_equiv_pos_as_xyz
 1  'x, y, z'
loop_
 _atom_site_type_symbol
 _atom_site_label
 _atom_site_symmetry_multiplicity
 _atom_site_fract_x
 _atom_site_fract_y
 _atom_site_fract_z
 _atom_site_fract_occupancy
 Li  Li1  1  0.00107  0.49968  0.92346  1
 Li  Li2  1  0.00085  0.49972  0.23195  1
 Li  Li3  1  0.00075  0.99970  0.56137  1
 Li  Li4  1  0.00084  0.99971  0.25310  1
 Li  Li5  1  0.50095  0.49961  0.75660  1
 Li  Li6  1  0.50074  -0.00040  0.72733  1
 Li  Li7  1  0.50079  0.99971  0.41677  1
 Li  Li8  1  0.50092  0.49972  0.06996  1
 Mn  Mn1  1  0.50084  0.99972  0.08587  1
 Mn  Mn2  1  0.00087  0.49971  0.57969  1
 Mn  Mn3  1  0.50086  0.49971  0.40306  1
 O  O1  1  0.82120  0.21933  0.07178  1
 O  O2  1  0.82548  0.28433  0.41777  1
 O  O3  1  0.14203  0.74363  0.74016  1
 O  O4  1  0.17623  0.71510  0.41778  1
 O  O5  1  0.18050  0.78010  0.07178  1
 O  O6  1  0.32671  0.28287  0.56722  1
 O  O7  1  0.33236  0.22099  0.92105  1
 O  O8  1  0.34994  0.24801  0.24539  1
 O  O9  1  0.65177  0.75143  0.24540  1
 O  O10  1  0.66932  0.77842  0.92105  1
 O  O11  1  0.67502  0.71654  0.56723  1
 O  O12  1  0.85969  0.25576  0.74015  1
 Ti  Ti1  1  0.00080  0.99969  0.90059  1
