CIF file written using JARVIS-Tools package.
data_TbNaS2
_symmetry_space_group_name_H-M  'R-3m'
_cell_length_a       3.98703
_cell_length_b       3.98703
_cell_length_c       6.99413
_cell_angle_alpha    73.4396
_cell_angle_beta     73.4395
_cell_angle_gamma    60.0001

_symmetry_Int_Tables_number  166
_chemical_formula_structural  TbNaS2
_chemical_formula_sum  TbNaS2
_cell_volume  90.92149425146714
_cell_formula_units_Z  1
loop_
  _symmetry_equiv_pos_site_id
 _symmetry_equiv_pos_as_xyz
 1  'x, y, z'
loop_
 _atom_site_type_symbol
 _atom_site_label
 _atom_site_symmetry_multiplicity
 _atom_site_fract_x
 _atom_site_fract_y
 _atom_site_fract_z
 _atom_site_fract_occupancy
 Na  Na1  1  0.50000  0.50000  0.50000  1
 S  S1  1  0.74357  0.74357  0.76930  1
 S  S2  1  0.25643  0.25643  0.23070  1
 Tb  Tb1  1  0.00000  0.00000  0.00000  1
