CIF file written using JARVIS-Tools package.
data_Li2Al2FeO6
_symmetry_space_group_name_H-M  'C2'
_cell_length_a       4.88861
_cell_length_b       4.88861
_cell_length_c       5.06892
_cell_angle_alpha    80.618
_cell_angle_beta     99.3821
_cell_angle_gamma    59.9545

_symmetry_Int_Tables_number  5
_chemical_formula_structural  Li2Al2FeO6
_chemical_formula_sum  Li2Al2FeO6
_cell_volume  99.12371386036034
_cell_formula_units_Z  1
loop_
  _symmetry_equiv_pos_site_id
 _symmetry_equiv_pos_as_xyz
 1  'x, y, z'
loop_
 _atom_site_type_symbol
 _atom_site_label
 _atom_site_symmetry_multiplicity
 _atom_site_fract_x
 _atom_site_fract_y
 _atom_site_fract_z
 _atom_site_fract_occupancy
 Al  Al1  1  0.32828  0.32828  0.00000  1
 Al  Al2  1  0.66422  0.66422  0.00000  1
 Fe  Fe1  1  -0.00082  -0.00082  -0.00000  1
 Li  Li1  1  0.50302  0.50302  0.50000  1
 Li  Li2  1  0.84553  0.84553  0.50000  1
 O  O1  1  0.06962  0.60345  0.21193  1
 O  O2  1  0.25848  0.73023  0.79098  1
 O  O3  1  0.60345  0.06962  0.78807  1
 O  O4  1  0.40899  0.92123  0.20660  1
 O  O5  1  0.73023  0.25848  0.20902  1
 O  O6  1  0.92123  0.40899  0.79340  1
