CIF file written using JARVIS-Tools package.
data_Li3MnFe3O8
_symmetry_space_group_name_H-M  'C2/m'
_cell_length_a       5.62979
_cell_length_b       5.61528
_cell_length_c       5.7884
_cell_angle_alpha    90.1334
_cell_angle_beta     119.089
_cell_angle_gamma    120.082

_symmetry_Int_Tables_number  12
_chemical_formula_structural  Li3MnFe3O8
_chemical_formula_sum  Li3MnFe3O8
_cell_volume  130.84176583809574
_cell_formula_units_Z  1
loop_
  _symmetry_equiv_pos_site_id
 _symmetry_equiv_pos_as_xyz
 1  'x, y, z'
loop_
 _atom_site_type_symbol
 _atom_site_label
 _atom_site_symmetry_multiplicity
 _atom_site_fract_x
 _atom_site_fract_y
 _atom_site_fract_z
 _atom_site_fract_occupancy
 Fe  Fe1  1  0.00000  0.50000  0.00000  1
 Fe  Fe2  1  0.50000  0.50000  0.00000  1
 Fe  Fe3  1  0.50000  -0.00000  0.00000  1
 Li  Li1  1  1.00000  0.50000  0.50000  1
 Li  Li2  1  0.00000  0.00000  0.50000  1
 Li  Li3  1  0.50000  0.00000  0.50000  1
 Mn  Mn1  1  -0.00000  -0.00000  0.00000  1
 O  O1  1  0.01533  0.25603  0.77457  1
 O  O2  1  0.52083  0.25710  0.78453  1
 O  O3  1  0.51991  0.76267  0.78165  1
 O  O4  1  0.02446  0.76267  0.78164  1
 O  O5  1  0.97553  0.23733  0.21836  1
 O  O6  1  0.48009  0.23733  0.21835  1
 O  O7  1  0.47917  0.74290  0.21547  1
 O  O8  1  0.98467  0.74397  0.22543  1
