CIF file written using JARVIS-Tools package.
data_Na2GaPCO7
_symmetry_space_group_name_H-M  'P2_1/m'
_cell_length_a       5.13961
_cell_length_b       6.49139
_cell_length_c       8.90867
_cell_angle_alpha    90
_cell_angle_beta     90.9095
_cell_angle_gamma    90

_symmetry_Int_Tables_number  11
_chemical_formula_structural  Na2GaPCO7
_chemical_formula_sum  Na4Ga2P2C2O4
_cell_volume  297.1841073725931
_cell_formula_units_Z  2
loop_
  _symmetry_equiv_pos_site_id
 _symmetry_equiv_pos_as_xyz
 1  'x, y, z'
loop_
 _atom_site_type_symbol
 _atom_site_label
 _atom_site_symmetry_multiplicity
 _atom_site_fract_x
 _atom_site_fract_y
 _atom_site_fract_z
 _atom_site_fract_occupancy
 C  C1  1  0.28730  0.25000  0.08181  1
 C  C2  1  0.71270  0.75000  0.91819  1
 Ga  Ga1  1  0.21767  0.25000  0.35720  1
 Ga  Ga2  1  0.78233  0.75000  0.64280  1
 Na  Na1  1  0.77106  0.50662  0.22156  1
 Na  Na2  1  0.77106  0.99338  0.22156  1
 Na  Na3  1  0.22894  0.49338  0.77844  1
 Na  Na4  1  0.22894  0.00662  0.77844  1
 O  O1  1  0.65615  0.75000  0.05465  1
 O  O2  1  0.94789  0.75000  0.86560  1
 O  O3  1  0.46968  0.25000  0.18996  1
 O  O4  1  0.19986  0.94199  0.33602  1
 O  O5  1  0.19986  0.55801  0.33602  1
 O  O6  1  0.05211  0.25000  0.13440  1
 O  O7  1  0.58383  0.75000  0.45402  1
 O  O8  1  0.80014  0.05801  0.66398  1
 O  O9  1  0.14700  0.75000  0.58202  1
 O  O10  1  0.80014  0.44199  0.66398  1
 O  O11  1  0.85300  0.25000  0.41798  1
 O  O12  1  0.53032  0.75000  0.81004  1
 O  O13  1  0.41617  0.25000  0.54598  1
 O  O14  1  0.34385  0.25000  0.94535  1
 P  P1  1  0.71952  0.25000  0.57331  1
 P  P2  1  0.28048  0.75000  0.42669  1
