CIF file written using JARVIS-Tools package.
data_Li4CuNi3P4O16
_symmetry_space_group_name_H-M  'Pm'
_cell_length_a       4.6964
_cell_length_b       5.91708
_cell_length_c       10.0339
_cell_angle_alpha    90
_cell_angle_beta     90.4809
_cell_angle_gamma    90

_symmetry_Int_Tables_number  6
_chemical_formula_structural  Li4CuNi3P4O16
_chemical_formula_sum  Li4CuNi3P4O6
_cell_volume  278.8221324485681
_cell_formula_units_Z  1
loop_
  _symmetry_equiv_pos_site_id
 _symmetry_equiv_pos_as_xyz
 1  'x, y, z'
loop_
 _atom_site_type_symbol
 _atom_site_label
 _atom_site_symmetry_multiplicity
 _atom_site_fract_x
 _atom_site_fract_y
 _atom_site_fract_z
 _atom_site_fract_occupancy
 Cu  Cu1  1  0.96413  0.50000  0.27939  1
 Li  Li1  1  0.00429  0.25047  0.00215  1
 Li  Li2  1  0.00429  0.74953  0.00215  1
 Li  Li3  1  0.49515  0.75116  0.49910  1
 Li  Li4  1  0.49515  0.24884  0.49910  1
 Ni  Ni1  1  0.01864  0.00000  0.72633  1
 Ni  Ni2  1  0.48419  0.00000  0.22261  1
 Ni  Ni3  1  0.51841  0.50000  0.77514  1
 O  O1  1  0.22139  0.29191  0.66615  1
 O  O2  1  0.28721  0.28926  0.16223  1
 O  O3  1  0.25801  0.00000  0.90288  1
 O  O4  1  0.19686  0.50000  0.45071  1
 O  O5  1  0.22139  0.70809  0.66615  1
 O  O6  1  0.77060  0.20528  0.33450  1
 O  O7  1  0.29952  0.50000  0.94831  1
 O  O8  1  0.24235  0.00000  0.40265  1
 O  O9  1  0.71061  0.00000  0.04976  1
 O  O10  1  0.75139  0.50000  0.59752  1
 O  O11  1  0.72476  0.20797  0.83409  1
 O  O12  1  0.75097  0.50000  0.09651  1
 O  O13  1  0.28721  0.71074  0.16223  1
 O  O14  1  0.77060  0.79472  0.33450  1
 O  O15  1  0.72476  0.79203  0.83409  1
 O  O16  1  0.79667  0.00000  0.55086  1
 P  P1  1  0.07762  0.50000  0.59479  1
 P  P2  1  0.42321  0.50000  0.09302  1
 P  P3  1  0.58418  0.00000  0.90615  1
 P  P4  1  0.91646  0.00000  0.40694  1
