CIF file written using JARVIS-Tools package.
data_Li2FeNiP2O8
_symmetry_space_group_name_H-M  'P2_1/m'
_cell_length_a       4.70611
_cell_length_b       5.95938
_cell_length_c       10.1533
_cell_angle_alpha    90
_cell_angle_beta     90.465
_cell_angle_gamma    90

_symmetry_Int_Tables_number  11
_chemical_formula_structural  Li2FeNiP2O8
_chemical_formula_sum  Li4Fe2Ni2P4O6
_cell_volume  284.74369936596753
_cell_formula_units_Z  2
loop_
  _symmetry_equiv_pos_site_id
 _symmetry_equiv_pos_as_xyz
 1  'x, y, z'
loop_
 _atom_site_type_symbol
 _atom_site_label
 _atom_site_symmetry_multiplicity
 _atom_site_fract_x
 _atom_site_fract_y
 _atom_site_fract_z
 _atom_site_fract_occupancy
 Fe  Fe1  1  0.02228  0.75000  0.27788  1
 Fe  Fe2  1  0.97772  0.25000  0.72212  1
 Li  Li1  1  0.00000  0.00000  0.00000  1
 Li  Li2  1  0.00000  0.50000  0.00000  1
 Li  Li3  1  0.50000  0.00000  0.50000  1
 Li  Li4  1  0.50000  0.50000  0.50000  1
 Ni  Ni1  1  0.52517  0.25000  0.22167  1
 Ni  Ni2  1  0.47483  0.75000  0.77833  1
 O  O1  1  0.25720  0.75000  0.09557  1
 O  O2  1  0.21232  0.04144  0.33375  1
 O  O3  1  0.21232  0.45856  0.33375  1
 O  O4  1  0.29542  0.25000  0.04982  1
 O  O5  1  0.72338  0.95535  0.16436  1
 O  O6  1  0.74280  0.25000  0.90443  1
 O  O7  1  0.79215  0.75000  0.45402  1
 O  O8  1  0.72338  0.54465  0.16436  1
 O  O9  1  0.20785  0.25000  0.54598  1
 O  O10  1  0.27662  0.45535  0.83564  1
 O  O11  1  0.78768  0.95856  0.66625  1
 O  O12  1  0.78768  0.54144  0.66625  1
 O  O13  1  0.75268  0.25000  0.40345  1
 O  O14  1  0.27662  0.04465  0.83564  1
 O  O15  1  0.24732  0.75000  0.59655  1
 O  O16  1  0.70458  0.75000  0.95018  1
 P  P1  1  0.58282  0.75000  0.09171  1
 P  P2  1  0.07857  0.25000  0.40441  1
 P  P3  1  0.92143  0.75000  0.59559  1
 P  P4  1  0.41718  0.25000  0.90829  1
