CIF file written using JARVIS-Tools package.
data_AlSeBr7
_symmetry_space_group_name_H-M  'Pc'
_cell_length_a       7.14336
_cell_length_b       6.66831
_cell_length_c       13.0242
_cell_angle_alpha    90
_cell_angle_beta     102.648
_cell_angle_gamma    90

_symmetry_Int_Tables_number  7
_chemical_formula_structural  AlSeBr7
_chemical_formula_sum  Al2Se2Br4
_cell_volume  605.3456667437292
_cell_formula_units_Z  2
loop_
  _symmetry_equiv_pos_site_id
 _symmetry_equiv_pos_as_xyz
 1  'x, y, z'
loop_
 _atom_site_type_symbol
 _atom_site_label
 _atom_site_symmetry_multiplicity
 _atom_site_fract_x
 _atom_site_fract_y
 _atom_site_fract_z
 _atom_site_fract_occupancy
 Al  Al1  1  0.67884  0.00003  0.34135  1
 Al  Al2  1  0.67884  -0.00003  0.84135  1
 Br  Br1  1  0.95055  0.37557  0.62326  1
 Br  Br2  1  0.25280  0.42577  0.42858  1
 Br  Br3  1  0.20643  0.16376  0.10106  1
 Br  Br4  1  0.20643  0.83624  0.60106  1
 Br  Br5  1  0.95055  0.62443  0.12326  1
 Br  Br6  1  -0.01450  0.07279  0.81478  1
 Br  Br7  1  0.66352  0.12548  0.00625  1
 Br  Br8  1  0.66352  0.87452  0.50625  1
 Br  Br9  1  0.63874  0.65581  0.82785  1
 Br  Br10  1  0.63874  0.34419  0.32785  1
 Br  Br11  1  0.45167  0.16769  0.71582  1
 Br  Br12  1  0.45167  0.83231  0.21582  1
 Br  Br13  1  0.25280  0.57423  0.92858  1
 Br  Br14  1  -0.01450  0.92721  0.31478  1
 Se  Se1  1  0.00726  0.40213  0.99116  1
 Se  Se2  1  0.00726  0.59787  0.49116  1
