CIF file written using JARVIS-Tools package.
data_Na3MgPCO7
_symmetry_space_group_name_H-M  'P2_1/m'
_cell_length_a       5.16482
_cell_length_b       6.62145
_cell_length_c       8.87128
_cell_angle_alpha    90
_cell_angle_beta     90.4551
_cell_angle_gamma    90

_symmetry_Int_Tables_number  11
_chemical_formula_structural  Na3MgPCO7
_chemical_formula_sum  Na6Mg2P2C2O4
_cell_volume  303.37533823933967
_cell_formula_units_Z  2
loop_
  _symmetry_equiv_pos_site_id
 _symmetry_equiv_pos_as_xyz
 1  'x, y, z'
loop_
 _atom_site_type_symbol
 _atom_site_label
 _atom_site_symmetry_multiplicity
 _atom_site_fract_x
 _atom_site_fract_y
 _atom_site_fract_z
 _atom_site_fract_occupancy
 C  C1  1  0.26968  0.25000  0.06378  1
 C  C2  1  0.73032  0.75000  0.93622  1
 Mg  Mg1  1  0.21649  0.25000  0.35381  1
 Mg  Mg2  1  0.78351  0.75000  0.64619  1
 Na  Na1  1  0.23683  0.75000  0.08174  1
 Na  Na2  1  0.74929  0.99498  0.26471  1
 Na  Na3  1  0.74929  0.50502  0.26471  1
 Na  Na4  1  0.25071  0.49498  0.73529  1
 Na  Na5  1  0.25071  0.00502  0.73529  1
 Na  Na6  1  0.76317  0.25000  0.91826  1
 O  O1  1  0.22119  0.56177  0.31899  1
 O  O2  1  0.22119  0.93823  0.31899  1
 O  O3  1  0.95750  0.75000  0.87420  1
 O  O4  1  0.04250  0.25000  0.12580  1
 O  O5  1  0.70726  0.75000  0.08127  1
 O  O6  1  0.47304  0.25000  0.15130  1
 O  O7  1  0.85021  0.25000  0.43267  1
 O  O8  1  0.52696  0.75000  0.84870  1
 O  O9  1  0.40979  0.25000  0.55328  1
 O  O10  1  0.77881  0.43823  0.68101  1
 O  O11  1  0.77881  0.06177  0.68101  1
 O  O12  1  0.59021  0.75000  0.44672  1
 O  O13  1  0.14979  0.75000  0.56733  1
 O  O14  1  0.29274  0.25000  0.91873  1
 P  P1  1  0.29271  0.75000  0.41516  1
 P  P2  1  0.70729  0.25000  0.58484  1
