CIF file written using JARVIS-Tools package.
data_LiVGaO4
_symmetry_space_group_name_H-M  'Imma'
_cell_length_a       5.9129
_cell_length_b       5.9129
_cell_length_c       5.91289
_cell_angle_alpha    59.9043
_cell_angle_beta     91.7733
_cell_angle_gamma    121.972

_symmetry_Int_Tables_number  74
_chemical_formula_structural  LiVGaO4
_chemical_formula_sum  Li2V2Ga2O8
_cell_volume  143.77040530985644
_cell_formula_units_Z  2
loop_
  _symmetry_equiv_pos_site_id
 _symmetry_equiv_pos_as_xyz
 1  'x, y, z'
loop_
 _atom_site_type_symbol
 _atom_site_label
 _atom_site_symmetry_multiplicity
 _atom_site_fract_x
 _atom_site_fract_y
 _atom_site_fract_z
 _atom_site_fract_occupancy
 Ga  Ga1  1  0.50000  -0.00000  -0.00000  1
 Ga  Ga2  1  0.50000  0.50000  0.50000  1
 Li  Li1  1  0.12028  0.25000  0.12972  1
 Li  Li2  1  0.87972  0.75000  0.87028  1
 O  O1  1  0.28875  0.01922  0.73047  1
 O  O2  1  0.24968  0.51922  0.26953  1
 O  O3  1  0.25725  0.52459  0.71816  1
 O  O4  1  0.25725  0.97541  0.26734  1
 O  O5  1  0.74275  0.02459  0.73266  1
 O  O6  1  0.74275  0.47541  0.28184  1
 O  O7  1  0.75032  0.48078  0.73047  1
 O  O8  1  0.71125  0.98078  0.26953  1
 V  V1  1  0.50000  0.00000  0.50000  1
 V  V2  1  0.00000  0.50000  0.50000  1
