CIF file written using JARVIS-Tools package.
data_YWN3
_symmetry_space_group_name_H-M  'P2_1/m'
_cell_length_a       5.73746
_cell_length_b       3.62973
_cell_length_c       7.92263
_cell_angle_alpha    90
_cell_angle_beta     107.113
_cell_angle_gamma    90

_symmetry_Int_Tables_number  11
_chemical_formula_structural  YWN3
_chemical_formula_sum  Y2W2N6
_cell_volume  157.687920903249
_cell_formula_units_Z  2
loop_
  _symmetry_equiv_pos_site_id
 _symmetry_equiv_pos_as_xyz
 1  'x, y, z'
loop_
 _atom_site_type_symbol
 _atom_site_label
 _atom_site_symmetry_multiplicity
 _atom_site_fract_x
 _atom_site_fract_y
 _atom_site_fract_z
 _atom_site_fract_occupancy
 N  N1  1  0.05702  0.75000  0.66164  1
 N  N2  1  0.56864  0.75000  0.65384  1
 N  N3  1  0.94298  0.25000  0.33836  1
 N  N4  1  0.43136  0.25000  0.34616  1
 N  N5  1  0.85705  0.25000  0.91430  1
 N  N6  1  0.14295  0.75000  0.08570  1
 W  W1  1  0.12232  0.25000  0.17961  1
 W  W2  1  0.87768  0.75000  0.82039  1
 Y  Y1  1  0.29475  0.25000  0.59927  1
 Y  Y2  1  0.70525  0.75000  0.40073  1
