CIF file written using JARVIS-Tools package.
data_TbKS2
_symmetry_space_group_name_H-M  'R-3m'
_cell_length_a       4.04837
_cell_length_b       4.04836
_cell_length_c       7.65465
_cell_angle_alpha    74.6664
_cell_angle_beta     74.6664
_cell_angle_gamma    60

_symmetry_Int_Tables_number  166
_chemical_formula_structural  TbKS2
_chemical_formula_sum  TbKS2
_cell_volume  103.45744967927487
_cell_formula_units_Z  1
loop_
  _symmetry_equiv_pos_site_id
 _symmetry_equiv_pos_as_xyz
 1  'x, y, z'
loop_
 _atom_site_type_symbol
 _atom_site_label
 _atom_site_symmetry_multiplicity
 _atom_site_fract_x
 _atom_site_fract_y
 _atom_site_fract_z
 _atom_site_fract_occupancy
 K  K1  1  0.50000  0.50000  0.50000  1
 S  S1  1  0.73510  0.73510  0.79470  1
 S  S2  1  0.26490  0.26490  0.20530  1
 Tb  Tb1  1  0.00000  0.00000  0.00000  1
