CIF file written using JARVIS-Tools package.
data_InSiTe3
_symmetry_space_group_name_H-M  'P-6'
_cell_length_a       7.07151
_cell_length_b       7.0715
_cell_length_c       4.12102
_cell_angle_alpha    90
_cell_angle_beta     90
_cell_angle_gamma    120

_symmetry_Int_Tables_number  174
_chemical_formula_structural  InSiTe3
_chemical_formula_sum  InSiTe3
_cell_volume  178.46776186971675
_cell_formula_units_Z  1
loop_
  _symmetry_equiv_pos_site_id
 _symmetry_equiv_pos_as_xyz
 1  'x, y, z'
loop_
 _atom_site_type_symbol
 _atom_site_label
 _atom_site_symmetry_multiplicity
 _atom_site_fract_x
 _atom_site_fract_y
 _atom_site_fract_z
 _atom_site_fract_occupancy
 In  In1  1  0.33333  0.66667  0.70812  1
 Si  Si1  1  0.00000  0.00000  0.20801  1
 Te  Te1  1  0.35540  0.34114  0.20802  1
 Te  Te2  1  0.65886  0.01426  0.20802  1
 Te  Te3  1  0.98574  0.64460  0.20802  1
