CIF file written using JARVIS-Tools package.
data_VOF
_symmetry_space_group_name_H-M  'R-3m'
_cell_length_a       3.39077
_cell_length_b       3.39083
_cell_length_c       6.21844
_cell_angle_alpha    74.1799
_cell_angle_beta     90.0001
_cell_angle_gamma    60.0009

_symmetry_Int_Tables_number  166
_chemical_formula_structural  VOF
_chemical_formula_sum  V2O2F2
_cell_volume  58.77058847876131
_cell_formula_units_Z  2
loop_
  _symmetry_equiv_pos_site_id
 _symmetry_equiv_pos_as_xyz
 1  'x, y, z'
loop_
 _atom_site_type_symbol
 _atom_site_label
 _atom_site_symmetry_multiplicity
 _atom_site_fract_x
 _atom_site_fract_y
 _atom_site_fract_z
 _atom_site_fract_occupancy
 F  F1  1  0.62715  0.74571  0.88147  1
 F  F2  1  0.37285  0.25429  0.11853  1
 O  O1  1  0.87509  0.24982  0.62528  1
 O  O2  1  0.12491  0.75018  0.37472  1
 V  V1  1  0.76011  0.47978  0.28028  1
 V  V2  1  0.23989  0.52022  0.71972  1
