CIF file written using JARVIS-Tools package.
data_SmMgF4
_symmetry_space_group_name_H-M  'Cmcm'
_cell_length_a       3.87812
_cell_length_b       5.65672
_cell_length_c       7.85221
_cell_angle_alpha    90
_cell_angle_beta     104.297
_cell_angle_gamma    90

_symmetry_Int_Tables_number  63
_chemical_formula_structural  SmMgF4
_chemical_formula_sum  Sm2Mg2F8
_cell_volume  166.92242393946123
_cell_formula_units_Z  2
loop_
  _symmetry_equiv_pos_site_id
 _symmetry_equiv_pos_as_xyz
 1  'x, y, z'
loop_
 _atom_site_type_symbol
 _atom_site_label
 _atom_site_symmetry_multiplicity
 _atom_site_fract_x
 _atom_site_fract_y
 _atom_site_fract_z
 _atom_site_fract_occupancy
 F  F1  1  0.00000  0.00000  0.00000  1
 F  F2  1  0.00000  0.50000  0.00000  1
 F  F3  1  0.19214  0.49455  0.38427  1
 F  F4  1  0.80786  0.50545  0.61573  1
 F  F5  1  0.38625  0.75000  0.77251  1
 F  F6  1  0.61375  0.25000  0.22749  1
 F  F7  1  0.19214  0.00545  0.38427  1
 F  F8  1  0.80786  0.99455  0.61573  1
 Mg  Mg1  1  0.08351  0.25000  0.16701  1
 Mg  Mg2  1  0.91649  0.75000  0.83299  1
 Sm  Sm1  1  0.67374  0.75000  0.34749  1
 Sm  Sm2  1  0.32626  0.25000  0.65251  1
