CIF file written using JARVIS-Tools package.
data_LiGePCO7
_symmetry_space_group_name_H-M  'P2_1'
_cell_length_a       5.03088
_cell_length_b       6.21471
_cell_length_c       8.51915
_cell_angle_alpha    90
_cell_angle_beta     93.2906
_cell_angle_gamma    90

_symmetry_Int_Tables_number  4
_chemical_formula_structural  LiGePCO7
_chemical_formula_sum  Li2Ge2P2C2O4
_cell_volume  265.91607902498765
_cell_formula_units_Z  2
loop_
  _symmetry_equiv_pos_site_id
 _symmetry_equiv_pos_as_xyz
 1  'x, y, z'
loop_
 _atom_site_type_symbol
 _atom_site_label
 _atom_site_symmetry_multiplicity
 _atom_site_fract_x
 _atom_site_fract_y
 _atom_site_fract_z
 _atom_site_fract_occupancy
 C  C1  1  0.28610  0.24993  0.06291  1
 C  C2  1  0.71390  0.74993  0.93709  1
 Ge  Ge1  1  0.21388  0.25250  0.33763  1
 Ge  Ge2  1  0.78612  0.75250  0.66237  1
 Li  Li1  1  0.77609  0.46636  0.17996  1
 Li  Li2  1  0.22391  0.96636  0.82004  1
 O  O1  1  0.67092  0.72174  0.07615  1
 O  O2  1  0.04799  0.25777  0.12389  1
 O  O3  1  0.95201  0.75777  0.87611  1
 O  O4  1  0.20329  0.95250  0.32446  1
 O  O5  1  0.18846  0.56112  0.32838  1
 O  O6  1  0.47598  0.26722  0.18019  1
 O  O7  1  0.57663  0.75069  0.47421  1
 O  O8  1  0.81154  0.06112  0.67162  1
 O  O9  1  0.12778  0.76477  0.58445  1
 O  O10  1  0.87222  0.26477  0.41555  1
 O  O11  1  0.79671  0.45250  0.67554  1
 O  O12  1  0.52402  0.76722  0.81981  1
 O  O13  1  0.42337  0.25069  0.52579  1
 O  O14  1  0.32908  0.22174  0.92385  1
 P  P1  1  0.72856  0.25756  0.57145  1
 P  P2  1  0.27144  0.75756  0.42855  1
