CIF file written using JARVIS-Tools package.
data_NaV3O6
_symmetry_space_group_name_H-M  'C2'
_cell_length_a       5.162
_cell_length_b       4.9797
_cell_length_c       5.64943
_cell_angle_alpha    55.4417
_cell_angle_beta     66.3674
_cell_angle_gamma    76.8565

_symmetry_Int_Tables_number  5
_chemical_formula_structural  NaV3O6
_chemical_formula_sum  NaV3O6
_cell_volume  109.56559643041616
_cell_formula_units_Z  1
loop_
  _symmetry_equiv_pos_site_id
 _symmetry_equiv_pos_as_xyz
 1  'x, y, z'
loop_
 _atom_site_type_symbol
 _atom_site_label
 _atom_site_symmetry_multiplicity
 _atom_site_fract_x
 _atom_site_fract_y
 _atom_site_fract_z
 _atom_site_fract_occupancy
 Na  Na1  1  0.00000  0.24842  0.37579  1
 O  O1  1  0.25910  0.00185  0.16454  1
 O  O2  1  0.72793  0.34616  0.05263  1
 O  O3  1  0.74090  0.00185  0.83360  1
 O  O4  1  0.27207  0.34616  0.60122  1
 O  O5  1  0.72222  0.66714  0.38582  1
 O  O6  1  0.27778  0.66714  0.94704  1
 V  V1  1  -0.00000  0.02788  0.98606  1
 V  V2  1  0.50000  0.63268  0.18366  1
 V  V3  1  0.50000  0.39406  0.80297  1
