CIF file written using JARVIS-Tools package.
data_HfCl4
_symmetry_space_group_name_H-M  'P2/c'
_cell_length_a       6.18448
_cell_length_b       7.33625
_cell_length_c       6.27894
_cell_angle_alpha    90
_cell_angle_beta     108.949
_cell_angle_gamma    90

_symmetry_Int_Tables_number  13
_chemical_formula_structural  HfCl4
_chemical_formula_sum  Hf2Cl8
_cell_volume  269.44270303071977
_cell_formula_units_Z  2
loop_
  _symmetry_equiv_pos_site_id
 _symmetry_equiv_pos_as_xyz
 1  'x, y, z'
loop_
 _atom_site_type_symbol
 _atom_site_label
 _atom_site_symmetry_multiplicity
 _atom_site_fract_x
 _atom_site_fract_y
 _atom_site_fract_z
 _atom_site_fract_occupancy
 Cl  Cl1  1  0.99720  0.60940  0.23003  1
 Cl  Cl2  1  0.50280  0.60940  0.76997  1
 Cl  Cl3  1  0.48375  0.86659  0.25612  1
 Cl  Cl4  1  0.01625  0.86659  0.74388  1
 Cl  Cl5  1  0.51625  0.13341  0.74388  1
 Cl  Cl6  1  0.98375  0.13341  0.25612  1
 Cl  Cl7  1  0.49720  0.39060  0.23003  1
 Cl  Cl8  1  0.00280  0.39060  0.76997  1
 Hf  Hf1  1  0.75000  0.33461  -0.00000  1
 Hf  Hf2  1  0.25000  0.66539  -0.00000  1
