CIF file written using JARVIS-Tools package.
data_Nb4VO12
_symmetry_space_group_name_H-M  'P1'
_cell_length_a       5.11607
_cell_length_b       5.60996
_cell_length_c       7.73159
_cell_angle_alpha    84.2539
_cell_angle_beta     89.58
_cell_angle_gamma    89.9134

_symmetry_Int_Tables_number  1
_chemical_formula_structural  Nb4VO12
_chemical_formula_sum  Nb4VO2
_cell_volume  220.78281214148254
_cell_formula_units_Z  1
loop_
  _symmetry_equiv_pos_site_id
 _symmetry_equiv_pos_as_xyz
 1  'x, y, z'
loop_
 _atom_site_type_symbol
 _atom_site_label
 _atom_site_symmetry_multiplicity
 _atom_site_fract_x
 _atom_site_fract_y
 _atom_site_fract_z
 _atom_site_fract_occupancy
 Nb  Nb1  1  0.97239  0.99363  0.01884  1
 Nb  Nb2  1  0.51168  0.53148  0.48988  1
 Nb  Nb3  1  0.00810  0.99994  0.49846  1
 Nb  Nb4  1  0.48169  0.50794  0.02205  1
 O  O1  1  0.73565  0.25545  0.58131  1
 O  O2  1  0.87768  0.03285  0.27106  1
 O  O3  1  0.67526  0.84216  0.95317  1
 O  O4  1  0.10247  0.06737  0.76819  1
 O  O5  1  0.83937  0.69861  0.59726  1
 O  O6  1  0.32556  0.52962  0.75852  1
 O  O7  1  0.18354  0.72084  0.06606  1
 O  O8  1  0.81106  0.36364  0.92320  1
 O  O9  1  0.20298  0.33791  0.48117  1
 O  O10  1  0.29784  0.22806  0.06934  1
 O  O11  1  0.62247  0.52553  0.25857  1
 O  O12  1  0.33596  0.85070  0.46229  1
 V  V1  1  0.01630  0.39568  0.72133  1
