CIF file written using JARVIS-Tools package.
data_H2SeO3
_symmetry_space_group_name_H-M  'P2_12_12_1'
_cell_length_a       5.06571
_cell_length_b       5.88224
_cell_length_c       9.01136
_cell_angle_alpha    90
_cell_angle_beta     90
_cell_angle_gamma    90

_symmetry_Int_Tables_number  19
_chemical_formula_structural  H2SeO3
_chemical_formula_sum  H8Se4O2
_cell_volume  268.5177029835726
_cell_formula_units_Z  4
loop_
  _symmetry_equiv_pos_site_id
 _symmetry_equiv_pos_as_xyz
 1  'x, y, z'
loop_
 _atom_site_type_symbol
 _atom_site_label
 _atom_site_symmetry_multiplicity
 _atom_site_fract_x
 _atom_site_fract_y
 _atom_site_fract_z
 _atom_site_fract_occupancy
 H  H1  1  0.34069  0.93258  0.54525  1
 H  H2  1  0.84069  0.06742  0.95475  1
 H  H3  1  0.15931  0.43258  0.45475  1
 H  H4  1  0.65931  0.56742  0.04525  1
 H  H5  1  0.67866  0.80696  0.38553  1
 H  H6  1  0.17866  0.19304  0.11447  1
 H  H7  1  0.82134  0.30696  0.61447  1
 H  H8  1  0.32134  0.69304  0.88553  1
 O  O1  1  0.14272  0.37785  0.62525  1
 O  O2  1  0.36535  0.17790  0.07616  1
 O  O3  1  0.64272  0.62215  0.87475  1
 O  O4  1  0.86535  0.82210  0.42384  1
 O  O5  1  0.85728  0.12215  0.12525  1
 O  O6  1  0.35728  0.87785  0.37475  1
 O  O7  1  0.35349  0.95293  0.65859  1
 O  O8  1  0.63465  0.32210  0.57616  1
 O  O9  1  0.14651  0.45293  0.34141  1
 O  O10  1  0.64651  0.54707  0.15859  1
 O  O11  1  0.13465  0.67790  0.92384  1
 O  O12  1  0.85349  0.04707  0.84141  1
 Se  Se1  1  0.10518  0.74424  0.28875  1
 Se  Se2  1  0.39482  0.24424  0.71125  1
 Se  Se3  1  0.89482  0.75576  0.78875  1
 Se  Se4  1  0.60518  0.25576  0.21125  1
