CIF file written using JARVIS-Tools package.
data_Li2MnCoO4
_symmetry_space_group_name_H-M  'P2/m'
_cell_length_a       4.96682
_cell_length_b       2.85922
_cell_length_c       4.94388
_cell_angle_alpha    90
_cell_angle_beta     108.938
_cell_angle_gamma    90

_symmetry_Int_Tables_number  10
_chemical_formula_structural  Li2MnCoO4
_chemical_formula_sum  Li2MnCoO4
_cell_volume  66.40882405842228
_cell_formula_units_Z  1
loop_
  _symmetry_equiv_pos_site_id
 _symmetry_equiv_pos_as_xyz
 1  'x, y, z'
loop_
 _atom_site_type_symbol
 _atom_site_label
 _atom_site_symmetry_multiplicity
 _atom_site_fract_x
 _atom_site_fract_y
 _atom_site_fract_z
 _atom_site_fract_occupancy
 Co  Co1  1  0.50000  0.00000  0.50000  1
 Li  Li1  1  0.00000  0.50000  0.50000  1
 Li  Li2  1  0.00000  0.00000  0.00000  1
 Mn  Mn1  1  0.50000  0.50000  0.00000  1
 O  O1  1  0.72552  0.00000  0.24197  1
 O  O2  1  0.72239  0.50000  0.74565  1
 O  O3  1  0.27761  0.50000  0.25435  1
 O  O4  1  0.27448  0.00000  0.75803  1
