CIF file written using JARVIS-Tools package.
data_LiVF4
_symmetry_space_group_name_H-M  'Cmmm'
_cell_length_a       6.60652
_cell_length_b       5.55009
_cell_length_c       5.5501
_cell_angle_alpha    70.8316
_cell_angle_beta     53.4686
_cell_angle_gamma    53.4686

_symmetry_Int_Tables_number  65
_chemical_formula_structural  LiVF4
_chemical_formula_sum  Li2V2F8
_cell_volume  131.28859026816622
_cell_formula_units_Z  2
loop_
  _symmetry_equiv_pos_site_id
 _symmetry_equiv_pos_as_xyz
 1  'x, y, z'
loop_
 _atom_site_type_symbol
 _atom_site_label
 _atom_site_symmetry_multiplicity
 _atom_site_fract_x
 _atom_site_fract_y
 _atom_site_fract_z
 _atom_site_fract_occupancy
 F  F1  1  0.05848  0.75006  0.25002  1
 F  F2  1  0.00001  0.70524  0.79473  1
 F  F3  1  0.49999  0.20527  0.29476  1
 F  F4  1  0.44152  0.74998  0.24994  1
 F  F5  1  0.55848  0.25002  0.75006  1
 F  F6  1  0.50001  0.79473  0.70524  1
 F  F7  1  0.99999  0.29476  0.20527  1
 F  F8  1  0.94152  0.24994  0.74998  1
 Li  Li1  1  0.25000  0.24996  0.75004  1
 Li  Li2  1  0.75000  0.75004  0.24996  1
 V  V1  1  0.00000  -0.00000  0.50000  1
 V  V2  1  0.50000  0.50000  -0.00000  1
