CIF file written using JARVIS-Tools package.
data_Li2AlNiO4
_symmetry_space_group_name_H-M  'Pmn2_1'
_cell_length_a       4.95161
_cell_length_b       5.47767
_cell_length_c       6.16039
_cell_angle_alpha    90
_cell_angle_beta     90
_cell_angle_gamma    90

_symmetry_Int_Tables_number  31
_chemical_formula_structural  Li2AlNiO4
_chemical_formula_sum  Li4Al2Ni2O8
_cell_volume  167.09026762893154
_cell_formula_units_Z  2
loop_
  _symmetry_equiv_pos_site_id
 _symmetry_equiv_pos_as_xyz
 1  'x, y, z'
loop_
 _atom_site_type_symbol
 _atom_site_label
 _atom_site_symmetry_multiplicity
 _atom_site_fract_x
 _atom_site_fract_y
 _atom_site_fract_z
 _atom_site_fract_occupancy
 Al  Al1  1  0.50193  0.83641  0.00000  1
 Al  Al2  1  0.00193  0.16359  0.50000  1
 Li  Li1  1  0.00638  0.66531  0.25051  1
 Li  Li2  1  0.50638  0.33469  0.24949  1
 Li  Li3  1  0.00638  0.66531  0.74949  1
 Li  Li4  1  0.50638  0.33469  0.75051  1
 Ni  Ni1  1  0.00395  0.17008  0.00000  1
 Ni  Ni2  1  0.50395  0.82992  0.50000  1
 O  O1  1  0.14017  0.84934  0.00000  1
 O  O2  1  0.62491  0.14276  0.00000  1
 O  O3  1  0.10815  0.32223  0.26064  1
 O  O4  1  0.60815  0.67777  0.23936  1
 O  O5  1  0.12491  0.85724  0.50000  1
 O  O6  1  0.64017  0.15066  0.50000  1
 O  O7  1  0.60815  0.67777  0.76064  1
 O  O8  1  0.10815  0.32223  0.73936  1
