CIF file written using JARVIS-Tools package.
data_Sb4Br2O5
_symmetry_space_group_name_H-M  'P2_1/c'
_cell_length_a       5.18183
_cell_length_b       6.63589
_cell_length_c       13.6569
_cell_angle_alpha    97.2211
_cell_angle_beta     90
_cell_angle_gamma    90

_symmetry_Int_Tables_number  14
_chemical_formula_structural  Sb4Br2O5
_chemical_formula_sum  Sb8Br4O0
_cell_volume  465.8834589263115
_cell_formula_units_Z  2
loop_
  _symmetry_equiv_pos_site_id
 _symmetry_equiv_pos_as_xyz
 1  'x, y, z'
loop_
 _atom_site_type_symbol
 _atom_site_label
 _atom_site_symmetry_multiplicity
 _atom_site_fract_x
 _atom_site_fract_y
 _atom_site_fract_z
 _atom_site_fract_occupancy
 Br  Br1  1  0.20860  0.49672  0.38207  1
 Br  Br2  1  0.79140  0.50328  0.61793  1
 Br  Br3  1  0.29140  0.49672  0.88207  1
 Br  Br4  1  0.70860  0.50328  0.11793  1
 O  O1  1  0.50000  0.00000  0.00000  1
 O  O2  1  0.50654  0.93200  0.58254  1
 O  O3  1  0.00654  0.06800  0.91746  1
 O  O4  1  0.49346  0.06800  0.41746  1
 O  O5  1  0.99346  0.93200  0.08254  1
 O  O6  1  0.83743  0.92496  0.29014  1
 O  O7  1  0.33743  0.07504  0.20986  1
 O  O8  1  0.16257  0.07504  0.70986  1
 O  O9  1  0.66257  0.92496  0.79014  1
 O  O10  1  0.00000  0.00000  0.50000  1
 Sb  Sb1  1  0.62395  0.19557  0.29789  1
 Sb  Sb2  1  0.12395  0.80443  0.20211  1
 Sb  Sb3  1  0.37605  0.80443  0.70211  1
 Sb  Sb4  1  0.87605  0.19557  0.79789  1
 Sb  Sb5  1  0.72177  0.82088  0.44840  1
 Sb  Sb6  1  0.22177  0.17912  0.05160  1
 Sb  Sb7  1  0.27823  0.17912  0.55160  1
 Sb  Sb8  1  0.77823  0.82088  0.94840  1
