CIF file written using JARVIS-Tools package.
data_Li7Cr5O12
_symmetry_space_group_name_H-M  'C2/m'
_cell_length_a       4.98172
_cell_length_b       4.98057
_cell_length_c       9.69871
_cell_angle_alpha    85.1099
_cell_angle_beta     99.8139
_cell_angle_gamma    120.008

_symmetry_Int_Tables_number  12
_chemical_formula_structural  Li7Cr5O12
_chemical_formula_sum  Li7Cr5O2
_cell_volume  205.33682307285306
_cell_formula_units_Z  1
loop_
  _symmetry_equiv_pos_site_id
 _symmetry_equiv_pos_as_xyz
 1  'x, y, z'
loop_
 _atom_site_type_symbol
 _atom_site_label
 _atom_site_symmetry_multiplicity
 _atom_site_fract_x
 _atom_site_fract_y
 _atom_site_fract_z
 _atom_site_fract_occupancy
 Cr  Cr1  1  0.25008  0.50016  0.75000  1
 Cr  Cr2  1  0.08331  0.16662  0.25000  1
 Cr  Cr3  1  0.91705  0.83410  0.75000  1
 Cr  Cr4  1  0.58311  0.16623  0.75000  1
 Cr  Cr5  1  0.41658  0.83317  0.25000  1
 Li  Li1  1  0.74993  0.49987  0.25000  1
 Li  Li2  1  0.99428  0.49991  0.01057  1
 Li  Li3  1  0.82898  0.17494  0.48958  1
 Li  Li4  1  0.50563  0.49991  0.48943  1
 Li  Li5  1  0.15394  0.82489  0.48957  1
 Li  Li6  1  0.34596  0.17494  0.01042  1
 Li  Li7  1  0.67095  0.82489  0.01043  1
 O  O1  1  0.28807  0.83675  0.86395  1
 O  O2  1  0.06704  0.85477  0.13630  1
 O  O3  1  0.62459  0.50016  0.86597  1
 O  O4  1  0.35694  0.49990  0.13592  1
 O  O5  1  0.95149  0.16358  0.86395  1
 O  O6  1  0.14296  0.49990  0.36408  1
 O  O7  1  0.43286  0.14504  0.36370  1
 O  O8  1  0.21209  0.16358  0.63605  1
 O  O9  1  0.54868  0.83675  0.63605  1
 O  O10  1  0.87557  0.50016  0.63403  1
 O  O11  1  0.71218  0.14504  0.13630  1
 O  O12  1  0.78773  0.85477  0.36370  1
