CIF file written using JARVIS-Tools package.
data_Li4CrFe3O8
_symmetry_space_group_name_H-M  'C2/m'
_cell_length_a       4.92927
_cell_length_b       5.7611
_cell_length_c       5.68509
_cell_angle_alpha    60.4392
_cell_angle_beta     89.9999
_cell_angle_gamma    73.4312

_symmetry_Int_Tables_number  12
_chemical_formula_structural  Li4CrFe3O8
_chemical_formula_sum  Li4CrFe3O8
_cell_volume  132.6691398570777
_cell_formula_units_Z  1
loop_
  _symmetry_equiv_pos_site_id
 _symmetry_equiv_pos_as_xyz
 1  'x, y, z'
loop_
 _atom_site_type_symbol
 _atom_site_label
 _atom_site_symmetry_multiplicity
 _atom_site_fract_x
 _atom_site_fract_y
 _atom_site_fract_z
 _atom_site_fract_occupancy
 Cr  Cr1  1  -0.00000  0.50000  0.00000  1
 Fe  Fe1  1  -0.00000  0.50000  0.50000  1
 Fe  Fe2  1  0.50000  0.50000  0.25534  1
 Fe  Fe3  1  0.50000  0.50000  0.74466  1
 Li  Li1  1  0.00000  0.00000  0.00000  1
 Li  Li2  1  0.00000  -0.00000  0.50000  1
 Li  Li3  1  0.50710  -0.00106  0.25053  1
 Li  Li4  1  0.49290  0.00106  0.74947  1
 O  O1  1  0.24425  0.27349  0.36721  1
 O  O2  1  0.24424  0.27349  0.85928  1
 O  O3  1  0.73517  0.27638  0.11180  1
 O  O4  1  0.25479  0.72747  0.38627  1
 O  O5  1  0.26483  0.72362  0.88820  1
 O  O6  1  0.75576  0.72651  0.14072  1
 O  O7  1  0.74521  0.27253  0.61372  1
 O  O8  1  0.75575  0.72651  0.63279  1
