CIF file written using JARVIS-Tools package.
data_Li2Cr3SnO8
_symmetry_space_group_name_H-M  'R3m'
_cell_length_a       5.89002
_cell_length_b       5.89001
_cell_length_c       5.89002
_cell_angle_alpha    60.8596
_cell_angle_beta     60.8596
_cell_angle_gamma    60.8596

_symmetry_Int_Tables_number  160
_chemical_formula_structural  Li2Cr3SnO8
_chemical_formula_sum  Li2Cr3SnO8
_cell_volume  147.28917867559053
_cell_formula_units_Z  1
loop_
  _symmetry_equiv_pos_site_id
 _symmetry_equiv_pos_as_xyz
 1  'x, y, z'
loop_
 _atom_site_type_symbol
 _atom_site_label
 _atom_site_symmetry_multiplicity
 _atom_site_fract_x
 _atom_site_fract_y
 _atom_site_fract_z
 _atom_site_fract_occupancy
 Cr  Cr1  1  0.01698  0.49739  0.49739  1
 Cr  Cr2  1  0.49739  0.01698  0.49739  1
 Cr  Cr3  1  0.49739  0.49739  0.01698  1
 Li  Li1  1  0.12226  0.12226  0.12226  1
 Li  Li2  1  0.49754  0.49754  0.49754  1
 O  O1  1  0.26193  0.26193  0.26193  1
 O  O2  1  0.24636  0.24636  0.71473  1
 O  O3  1  0.24636  0.71473  0.24636  1
 O  O4  1  0.71473  0.24636  0.24636  1
 O  O5  1  0.29273  0.73862  0.73862  1
 O  O6  1  0.73862  0.29273  0.73862  1
 O  O7  1  0.73862  0.73862  0.29273  1
 O  O8  1  0.74316  0.74316  0.74316  1
 Sn  Sn1  1  0.88594  0.88594  0.88594  1
