CIF file written using JARVIS-Tools package.
data_NaVPCO7
_symmetry_space_group_name_H-M  'P2_1'
_cell_length_a       5.179
_cell_length_b       6.23417
_cell_length_c       8.86555
_cell_angle_alpha    90
_cell_angle_beta     86.5867
_cell_angle_gamma    90

_symmetry_Int_Tables_number  4
_chemical_formula_structural  NaVPCO7
_chemical_formula_sum  Na2V2P2C2O4
_cell_volume  285.7322128562077
_cell_formula_units_Z  2
loop_
  _symmetry_equiv_pos_site_id
 _symmetry_equiv_pos_as_xyz
 1  'x, y, z'
loop_
 _atom_site_type_symbol
 _atom_site_label
 _atom_site_symmetry_multiplicity
 _atom_site_fract_x
 _atom_site_fract_y
 _atom_site_fract_z
 _atom_site_fract_occupancy
 C  C1  1  0.36569  0.25887  0.06747  1
 C  C2  1  0.63431  0.75887  0.93253  1
 Na  Na1  1  0.82017  0.54741  0.21421  1
 Na  Na2  1  0.17983  0.04741  0.78579  1
 O  O1  1  0.56923  0.75494  0.06786  1
 O  O2  1  0.11990  0.25293  0.12599  1
 O  O3  1  0.88010  0.75293  0.87401  1
 O  O4  1  0.24099  0.93655  0.33987  1
 O  O5  1  0.22596  0.54342  0.34166  1
 O  O6  1  0.52376  0.26405  0.18070  1
 O  O7  1  0.58573  0.73324  0.47236  1
 O  O8  1  0.41427  0.23324  0.52764  1
 O  O9  1  0.77404  0.04342  0.65834  1
 O  O10  1  0.87430  0.24921  0.41405  1
 O  O11  1  0.75901  0.43655  0.66013  1
 O  O12  1  0.47624  0.76405  0.81930  1
 O  O13  1  0.12570  0.74921  0.58595  1
 O  O14  1  0.43077  0.25494  0.93214  1
 P  P1  1  0.70272  0.23486  0.56045  1
 P  P2  1  0.29728  0.73486  0.43955  1
 V  V1  1  0.76643  0.72667  0.67003  1
 V  V2  1  0.23357  0.22667  0.32997  1
