CIF file written using JARVIS-Tools package.
data_LiSiPCO7
_symmetry_space_group_name_H-M  'P2_1'
_cell_length_a       4.94975
_cell_length_b       6.00704
_cell_length_c       8.44865
_cell_angle_alpha    90
_cell_angle_beta     93.5693
_cell_angle_gamma    90

_symmetry_Int_Tables_number  4
_chemical_formula_structural  LiSiPCO7
_chemical_formula_sum  Li2Si2P2C2O4
_cell_volume  250.7191279171969
_cell_formula_units_Z  2
loop_
  _symmetry_equiv_pos_site_id
 _symmetry_equiv_pos_as_xyz
 1  'x, y, z'
loop_
 _atom_site_type_symbol
 _atom_site_label
 _atom_site_symmetry_multiplicity
 _atom_site_fract_x
 _atom_site_fract_y
 _atom_site_fract_z
 _atom_site_fract_occupancy
 C  C1  1  0.29024  0.24862  0.07136  1
 C  C2  1  0.70976  0.74862  0.92864  1
 Li  Li1  1  0.77707  0.46973  0.18178  1
 Li  Li2  1  0.22293  0.96973  0.81822  1
 O  O1  1  0.66498  0.72444  0.06885  1
 O  O2  1  0.05002  0.25471  0.13436  1
 O  O3  1  0.94998  0.75471  0.86564  1
 O  O4  1  0.20934  0.96066  0.32782  1
 O  O5  1  0.19867  0.55386  0.32841  1
 O  O6  1  0.47644  0.26429  0.19313  1
 O  O7  1  0.57194  0.75385  0.49050  1
 O  O8  1  0.42806  0.25385  0.50950  1
 O  O9  1  0.80133  0.05386  0.67159  1
 O  O10  1  0.90052  0.26160  0.42041  1
 O  O11  1  0.79066  0.46066  0.67218  1
 O  O12  1  0.52356  0.76429  0.80687  1
 O  O13  1  0.09948  0.76160  0.57959  1
 O  O14  1  0.33502  0.22444  0.93115  1
 P  P1  1  0.73209  0.25755  0.56788  1
 P  P2  1  0.26791  0.75755  0.43212  1
 Si  Si1  1  0.78480  0.75282  0.66339  1
 Si  Si2  1  0.21520  0.25282  0.33661  1
