CIF file written using JARVIS-Tools package.
data_Nb2CS2
_symmetry_space_group_name_H-M  'R-3m'
_cell_length_a       8.82771
_cell_length_b       8.82771
_cell_length_c       8.8277
_cell_angle_alpha    21.5924
_cell_angle_beta     21.5924
_cell_angle_gamma    21.5924

_symmetry_Int_Tables_number  166
_chemical_formula_structural  Nb2CS2
_chemical_formula_sum  Nb2CS2
_cell_volume  81.63546620586442
_cell_formula_units_Z  1
loop_
  _symmetry_equiv_pos_site_id
 _symmetry_equiv_pos_as_xyz
 1  'x, y, z'
loop_
 _atom_site_type_symbol
 _atom_site_label
 _atom_site_symmetry_multiplicity
 _atom_site_fract_x
 _atom_site_fract_y
 _atom_site_fract_z
 _atom_site_fract_occupancy
 C  C1  1  0.00000  0.00000  0.00000  1
 Nb  Nb1  1  0.62019  0.62019  0.62019  1
 Nb  Nb2  1  0.37981  0.37981  0.37981  1
 S  S1  1  0.77647  0.77647  0.77647  1
 S  S2  1  0.22353  0.22353  0.22353  1
