CIF file written using JARVIS-Tools package.
data_Li3Mn3Fe2O10
_symmetry_space_group_name_H-M  'P-1'
_cell_length_a       4.95207
_cell_length_b       5.03934
_cell_length_c       7.46693
_cell_angle_alpha    71.9539
_cell_angle_beta     71.175
_cell_angle_gamma    81.1884

_symmetry_Int_Tables_number  2
_chemical_formula_structural  Li3Mn3Fe2O10
_chemical_formula_sum  Li3Mn3Fe2O0
_cell_volume  167.40116046418518
_cell_formula_units_Z  1
loop_
  _symmetry_equiv_pos_site_id
 _symmetry_equiv_pos_as_xyz
 1  'x, y, z'
loop_
 _atom_site_type_symbol
 _atom_site_label
 _atom_site_symmetry_multiplicity
 _atom_site_fract_x
 _atom_site_fract_y
 _atom_site_fract_z
 _atom_site_fract_occupancy
 Fe  Fe1  1  0.10591  -0.00028  0.31057  1
 Fe  Fe2  1  0.89409  0.00028  0.68943  1
 Li  Li1  1  0.22151  0.50121  0.57268  1
 Li  Li2  1  0.50000  -0.00000  0.50000  1
 Li  Li3  1  0.77849  0.49879  0.42732  1
 Mn  Mn1  1  -0.00000  0.50000  -0.00000  1
 Mn  Mn2  1  0.68677  0.00578  0.10837  1
 Mn  Mn3  1  0.31323  0.99422  0.89163  1
 O  O1  1  0.65392  0.78616  0.94412  1
 O  O2  1  0.34608  0.21384  0.05588  1
 O  O3  1  0.12479  0.22449  0.46177  1
 O  O4  1  0.03608  0.77857  0.14044  1
 O  O5  1  0.87521  0.77551  0.53823  1
 O  O6  1  0.54739  0.21161  0.66268  1
 O  O7  1  0.78448  0.23737  0.23687  1
 O  O8  1  0.21552  0.76263  0.76313  1
 O  O9  1  0.45261  0.78839  0.33732  1
 O  O10  1  0.96392  0.22143  0.85956  1
