CIF file written using JARVIS-Tools package.
data_SiGeN2O
_symmetry_space_group_name_H-M  'Cm'
_cell_length_a       5.03081
_cell_length_b       5.38078
_cell_length_c       5.38078
_cell_angle_alpha    63.3959
_cell_angle_beta     89.7407
_cell_angle_gamma    90.2593

_symmetry_Int_Tables_number  8
_chemical_formula_structural  SiGeN2O
_chemical_formula_sum  Si2Ge2N4O2
_cell_volume  130.2297381929909
_cell_formula_units_Z  2
loop_
  _symmetry_equiv_pos_site_id
 _symmetry_equiv_pos_as_xyz
 1  'x, y, z'
loop_
 _atom_site_type_symbol
 _atom_site_label
 _atom_site_symmetry_multiplicity
 _atom_site_fract_x
 _atom_site_fract_y
 _atom_site_fract_z
 _atom_site_fract_occupancy
 Ge  Ge1  1  0.91365  0.32565  0.02937  1
 Ge  Ge2  1  0.91365  0.97063  0.67435  1
 N  N1  1  0.74840  0.65952  0.94288  1
 N  N2  1  0.74840  0.05712  0.34048  1
 N  N3  1  0.26899  0.33481  0.11499  1
 N  N4  1  0.26899  0.88501  0.66519  1
 O  O1  1  0.85703  0.26795  0.73205  1
 O  O2  1  0.33132  0.79996  0.20004  1
 Si  Si1  1  0.40879  0.01297  0.33292  1
 Si  Si2  1  0.40879  0.66708  0.98703  1
