CIF file written using JARVIS-Tools package.
data_LiMn3OF5
_symmetry_space_group_name_H-M  'P1'
_cell_length_a       6.22147
_cell_length_b       6.26986
_cell_length_c       6.25199
_cell_angle_alpha    92.5868
_cell_angle_beta     92.5381
_cell_angle_gamma    92.2585

_symmetry_Int_Tables_number  1
_chemical_formula_structural  LiMn3OF5
_chemical_formula_sum  Li2Mn6O2F0
_cell_volume  243.17871051543364
_cell_formula_units_Z  2
loop_
  _symmetry_equiv_pos_site_id
 _symmetry_equiv_pos_as_xyz
 1  'x, y, z'
loop_
 _atom_site_type_symbol
 _atom_site_label
 _atom_site_symmetry_multiplicity
 _atom_site_fract_x
 _atom_site_fract_y
 _atom_site_fract_z
 _atom_site_fract_occupancy
 F  F1  1  0.31462  0.93860  0.09269  1
 F  F2  1  0.09067  0.90961  0.70583  1
 F  F3  1  0.54511  0.40357  0.20507  1
 F  F4  1  0.18713  0.53474  0.39017  1
 F  F5  1  0.81712  0.47415  0.58300  1
 F  F6  1  0.40640  0.18422  0.54883  1
 F  F7  1  0.06703  0.30786  0.90049  1
 F  F8  1  0.68832  0.09694  0.90959  1
 F  F9  1  0.93311  0.68196  0.07370  1
 F  F10  1  0.57663  0.79481  0.44901  1
 Li  Li1  1  0.48826  0.50221  0.51412  1
 Li  Li2  1  0.00703  0.01608  0.02304  1
 Mn  Mn1  1  0.26275  0.56576  0.05762  1
 Mn  Mn2  1  0.92686  0.75921  0.42621  1
 Mn  Mn3  1  0.43710  0.90593  0.75242  1
 Mn  Mn4  1  0.58939  0.07783  0.26342  1
 Mn  Mn5  1  0.06559  0.24235  0.55009  1
 Mn  Mn6  1  0.72675  0.44551  0.91343  1
 O  O1  1  0.46079  0.59716  0.81976  1
 O  O2  1  0.90932  0.06149  0.32149  1
