CIF file written using JARVIS-Tools package.
data_Li4Mn3Fe2O10
_symmetry_space_group_name_H-M  'P1'
_cell_length_a       5.04746
_cell_length_b       4.98283
_cell_length_c       7.66064
_cell_angle_alpha    71.1498
_cell_angle_beta     71.1195
_cell_angle_gamma    81.1097

_symmetry_Int_Tables_number  1
_chemical_formula_structural  Li4Mn3Fe2O10
_chemical_formula_sum  Li4Mn3Fe2O0
_cell_volume  172.25712560452934
_cell_formula_units_Z  1
loop_
  _symmetry_equiv_pos_site_id
 _symmetry_equiv_pos_as_xyz
 1  'x, y, z'
loop_
 _atom_site_type_symbol
 _atom_site_label
 _atom_site_symmetry_multiplicity
 _atom_site_fract_x
 _atom_site_fract_y
 _atom_site_fract_z
 _atom_site_fract_occupancy
 Fe  Fe1  1  -0.00245  0.89954  0.66737  1
 Fe  Fe2  1  0.00074  0.10565  0.30267  1
 Li  Li1  1  0.49542  0.77289  0.43231  1
 Li  Li2  1  0.97456  0.49434  0.51062  1
 Li  Li3  1  0.49624  0.39723  0.21781  1
 Li  Li4  1  0.48790  0.20150  0.59224  1
 Mn  Mn1  1  0.50456  0.00318  0.00069  1
 Mn  Mn2  1  0.00499  0.31389  0.89572  1
 Mn  Mn3  1  0.00621  0.69154  0.10820  1
 O  O1  1  0.22639  0.35434  0.05691  1
 O  O2  1  0.78322  0.64173  0.95885  1
 O  O3  1  0.76070  0.87654  0.52527  1
 O  O4  1  0.23846  0.96833  0.87171  1
 O  O5  1  0.23907  0.14777  0.43844  1
 O  O6  1  0.77860  0.45004  0.33460  1
 O  O7  1  0.76715  0.21578  0.77370  1
 O  O8  1  0.24762  0.77746  0.23406  1
 O  O9  1  0.21551  0.53450  0.66344  1
 O  O10  1  0.77186  0.04915  0.13735  1
