CIF file written using JARVIS-Tools package.
data_Sm3Ag
_symmetry_space_group_name_H-M  'I4/mmm'
_cell_length_a       6.05758
_cell_length_b       6.05758
_cell_length_c       6.05758
_cell_angle_alpha    134.583
_cell_angle_beta     134.583
_cell_angle_gamma    66.1787

_symmetry_Int_Tables_number  139
_chemical_formula_structural  Sm3Ag
_chemical_formula_sum  Sm3Ag
_cell_volume  111.01419425538548
_cell_formula_units_Z  1
loop_
  _symmetry_equiv_pos_site_id
 _symmetry_equiv_pos_as_xyz
 1  'x, y, z'
loop_
 _atom_site_type_symbol
 _atom_site_label
 _atom_site_symmetry_multiplicity
 _atom_site_fract_x
 _atom_site_fract_y
 _atom_site_fract_z
 _atom_site_fract_occupancy
 Ag  Ag1  1  0.00000  0.00000  0.00000  1
 Sm  Sm1  1  0.75000  0.25000  0.50000  1
 Sm  Sm2  1  0.25000  0.75000  0.50000  1
 Sm  Sm3  1  0.50000  0.50000  0.00000  1
