CIF file written using JARVIS-Tools package.
data_Mn5O7F
_symmetry_space_group_name_H-M  'R3m'
_cell_length_a       5.78191
_cell_length_b       5.78191
_cell_length_c       5.78191
_cell_angle_alpha    63.3668
_cell_angle_beta     116.633
_cell_angle_gamma    116.633

_symmetry_Int_Tables_number  160
_chemical_formula_structural  Mn5O7F
_chemical_formula_sum  Mn5O7F
_cell_volume  146.8648813786665
_cell_formula_units_Z  1
loop_
  _symmetry_equiv_pos_site_id
 _symmetry_equiv_pos_as_xyz
 1  'x, y, z'
loop_
 _atom_site_type_symbol
 _atom_site_label
 _atom_site_symmetry_multiplicity
 _atom_site_fract_x
 _atom_site_fract_y
 _atom_site_fract_z
 _atom_site_fract_occupancy
 F  F1  1  0.62855  0.37145  0.37145  1
 Mn  Mn1  1  0.87322  0.62954  0.62954  1
 Mn  Mn2  1  0.37853  0.62147  0.62147  1
 Mn  Mn3  1  0.98494  0.01506  0.01506  1
 Mn  Mn4  1  0.37046  0.62954  0.12678  1
 Mn  Mn5  1  0.37046  0.12678  0.62954  1
 O  O1  1  0.60763  0.81615  0.39237  1
 O  O2  1  0.57680  0.86065  0.86065  1
 O  O3  1  0.60763  0.39237  0.81615  1
 O  O4  1  0.13935  0.86065  0.42320  1
 O  O5  1  0.12692  0.87308  0.87308  1
 O  O6  1  0.13935  0.42320  0.86065  1
 O  O7  1  0.18385  0.39237  0.39237  1
