CIF file written using JARVIS-Tools package.
data_SeI2
_symmetry_space_group_name_H-M  'P4_2/mnm'
_cell_length_a       7.97558
_cell_length_b       7.97558
_cell_length_c       3.91311
_cell_angle_alpha    90
_cell_angle_beta     90
_cell_angle_gamma    90

_symmetry_Int_Tables_number  136
_chemical_formula_structural  SeI2
_chemical_formula_sum  Se2I4
_cell_volume  248.91213404886528
_cell_formula_units_Z  2
loop_
  _symmetry_equiv_pos_site_id
 _symmetry_equiv_pos_as_xyz
 1  'x, y, z'
loop_
 _atom_site_type_symbol
 _atom_site_label
 _atom_site_symmetry_multiplicity
 _atom_site_fract_x
 _atom_site_fract_y
 _atom_site_fract_z
 _atom_site_fract_occupancy
 I  I1  1  0.31754  0.31754  0.00000  1
 I  I2  1  0.68246  0.68246  0.00000  1
 I  I3  1  0.81754  0.18246  0.50000  1
 I  I4  1  0.18246  0.81754  0.50000  1
 Se  Se1  1  0.00000  0.00000  0.00000  1
 Se  Se2  1  0.50000  0.50000  0.50000  1
