CIF file written using JARVIS-Tools package.
data_Li4V3OF11
_symmetry_space_group_name_H-M  'P1'
_cell_length_a       5.53979
_cell_length_b       6.0806
_cell_length_c       6.29784
_cell_angle_alpha    102.605
_cell_angle_beta     101.226
_cell_angle_gamma    98.0429

_symmetry_Int_Tables_number  1
_chemical_formula_structural  Li4V3OF11
_chemical_formula_sum  Li4V3OF
_cell_volume  199.34935932841242
_cell_formula_units_Z  1
loop_
  _symmetry_equiv_pos_site_id
 _symmetry_equiv_pos_as_xyz
 1  'x, y, z'
loop_
 _atom_site_type_symbol
 _atom_site_label
 _atom_site_symmetry_multiplicity
 _atom_site_fract_x
 _atom_site_fract_y
 _atom_site_fract_z
 _atom_site_fract_occupancy
 F  F1  1  0.66913  0.05157  0.87091  1
 F  F2  1  0.93399  0.10451  0.28812  1
 F  F3  1  0.05889  0.89827  0.70356  1
 F  F4  1  0.33999  0.95424  0.12968  1
 F  F5  1  0.83150  0.41592  0.60157  1
 F  F6  1  0.57092  0.41084  0.15850  1
 F  F7  1  0.41660  0.20449  0.59941  1
 F  F8  1  0.16574  0.57651  0.39787  1
 F  F9  1  0.57469  0.79979  0.40408  1
 F  F10  1  0.08754  0.30607  0.97204  1
 F  F11  1  0.43114  0.60059  0.84917  1
 Li  Li1  1  0.13654  0.33049  0.54149  1
 Li  Li2  1  0.38263  0.87226  0.64390  1
 Li  Li3  1  0.61531  0.14473  0.36146  1
 Li  Li4  1  0.85652  0.66358  0.45142  1
 O  O1  1  0.94075  0.67347  0.02135  1
 V  V1  1  0.69642  0.39972  0.86897  1
 V  V2  1  0.99145  0.97490  0.99887  1
 V  V3  1  0.30024  0.61805  0.13764  1
