CIF file written using JARVIS-Tools package.
data_InSnBr3
_symmetry_space_group_name_H-M  'R3m'
_cell_length_a       5.8452
_cell_length_b       5.84518
_cell_length_c       5.84518
_cell_angle_alpha    88.0117
_cell_angle_beta     88.0655
_cell_angle_gamma    88.1397

_symmetry_Int_Tables_number  160
_chemical_formula_structural  InSnBr3
_chemical_formula_sum  InSnBr3
_cell_volume  199.37586220223648
_cell_formula_units_Z  1
loop_
  _symmetry_equiv_pos_site_id
 _symmetry_equiv_pos_as_xyz
 1  'x, y, z'
loop_
 _atom_site_type_symbol
 _atom_site_label
 _atom_site_symmetry_multiplicity
 _atom_site_fract_x
 _atom_site_fract_y
 _atom_site_fract_z
 _atom_site_fract_occupancy
 Br  Br1  1  0.98574  0.46853  0.45392  1
 Br  Br2  1  0.46662  0.46822  0.97344  1
 Br  Br3  1  0.46595  0.98765  0.45488  1
 In  In1  1  0.08959  0.09162  0.07795  1
 Sn  Sn1  1  0.49209  0.49399  0.47980  1
