CIF file written using JARVIS-Tools package.
data_Li2V3CoO8
_symmetry_space_group_name_H-M  'R-3m'
_cell_length_a       5.7882
_cell_length_b       5.7882
_cell_length_c       5.80014
_cell_angle_alpha    60.068
_cell_angle_beta     119.932
_cell_angle_gamma    120

_symmetry_Int_Tables_number  166
_chemical_formula_structural  Li2V3CoO8
_chemical_formula_sum  Li2V3CoO8
_cell_volume  137.54876519426577
_cell_formula_units_Z  1
loop_
  _symmetry_equiv_pos_site_id
 _symmetry_equiv_pos_as_xyz
 1  'x, y, z'
loop_
 _atom_site_type_symbol
 _atom_site_label
 _atom_site_symmetry_multiplicity
 _atom_site_fract_x
 _atom_site_fract_y
 _atom_site_fract_z
 _atom_site_fract_occupancy
 Co  Co1  1  0.50000  0.50000  0.50000  1
 Li  Li1  1  0.87482  0.12518  0.62446  1
 Li  Li2  1  0.12518  0.87482  0.37554  1
 O  O1  1  0.73863  0.71569  0.76157  1
 O  O2  1  0.73863  0.26137  0.76157  1
 O  O3  1  0.25971  0.74029  0.77912  1
 O  O4  1  0.28431  0.26137  0.76157  1
 O  O5  1  0.71569  0.73863  0.23843  1
 O  O6  1  0.74029  0.25971  0.22088  1
 O  O7  1  0.26137  0.73863  0.23843  1
 O  O8  1  0.26137  0.28431  0.23843  1
 V  V1  1  0.50000  0.50000  0.00000  1
 V  V2  1  0.50000  -0.00000  0.00000  1
 V  V3  1  0.00000  0.50000  0.00000  1
