CIF file written using JARVIS-Tools package.
data_Nb2NiO6
_symmetry_space_group_name_H-M  'P4_2/mnm'
_cell_length_a       4.78089
_cell_length_b       4.78089
_cell_length_c       9.16425
_cell_angle_alpha    90
_cell_angle_beta     90
_cell_angle_gamma    90

_symmetry_Int_Tables_number  136
_chemical_formula_structural  Nb2NiO6
_chemical_formula_sum  Nb4Ni2O2
_cell_volume  209.46633195867147
_cell_formula_units_Z  2
loop_
  _symmetry_equiv_pos_site_id
 _symmetry_equiv_pos_as_xyz
 1  'x, y, z'
loop_
 _atom_site_type_symbol
 _atom_site_label
 _atom_site_symmetry_multiplicity
 _atom_site_fract_x
 _atom_site_fract_y
 _atom_site_fract_z
 _atom_site_fract_occupancy
 Nb  Nb1  1  0.00000  0.00000  0.83150  1
 Nb  Nb2  1  0.00000  0.00000  0.16850  1
 Nb  Nb3  1  0.50000  0.50000  0.66850  1
 Nb  Nb4  1  0.50000  0.50000  0.33150  1
 Ni  Ni1  1  0.00000  0.00000  0.50000  1
 Ni  Ni2  1  0.50000  0.50000  0.00000  1
 O  O1  1  0.20106  0.79894  0.67069  1
 O  O2  1  0.19472  0.80528  0.00000  1
 O  O3  1  0.80528  0.19472  0.00000  1
 O  O4  1  0.29894  0.29894  0.82931  1
 O  O5  1  0.20106  0.79894  0.32931  1
 O  O6  1  0.70106  0.70106  0.17069  1
 O  O7  1  0.70106  0.70106  0.82931  1
 O  O8  1  0.29894  0.29894  0.17069  1
 O  O9  1  0.69472  0.69472  0.50000  1
 O  O10  1  0.79894  0.20106  0.67069  1
 O  O11  1  0.30528  0.30528  0.50000  1
 O  O12  1  0.79894  0.20106  0.32931  1
