CIF file written using JARVIS-Tools package.
data_Li2TiNi2O5
_symmetry_space_group_name_H-M  'C2'
_cell_length_a       5.05052
_cell_length_b       5.08773
_cell_length_c       7.72347
_cell_angle_alpha    83.6504
_cell_angle_beta     70.9187
_cell_angle_gamma    70.2264

_symmetry_Int_Tables_number  5
_chemical_formula_structural  Li2TiNi2O5
_chemical_formula_sum  Li4Ti2Ni4O0
_cell_volume  176.4965782946628
_cell_formula_units_Z  2
loop_
  _symmetry_equiv_pos_site_id
 _symmetry_equiv_pos_as_xyz
 1  'x, y, z'
loop_
 _atom_site_type_symbol
 _atom_site_label
 _atom_site_symmetry_multiplicity
 _atom_site_fract_x
 _atom_site_fract_y
 _atom_site_fract_z
 _atom_site_fract_occupancy
 Li  Li1  1  0.19951  0.99998  0.60097  1
 Li  Li2  1  0.30100  0.50000  0.39800  1
 Li  Li3  1  0.80065  0.00000  0.39869  1
 Li  Li4  1  0.49568  0.50001  0.00862  1
 Ni  Ni1  1  0.10257  0.50000  0.79486  1
 Ni  Ni2  1  0.89771  0.50000  0.20458  1
 Ni  Ni3  1  0.00036  1.00000  0.99929  1
 Ni  Ni4  1  0.60496  0.00000  0.79007  1
 O  O1  1  0.54735  0.75072  0.39894  1
 O  O2  1  0.93652  0.73585  0.60136  1
 O  O3  1  0.05371  0.24929  0.39894  1
 O  O4  1  0.36126  0.74368  0.78994  1
 O  O5  1  0.46212  0.26415  0.60136  1
 O  O6  1  0.16190  0.76638  0.19753  1
 O  O7  1  0.24928  0.24336  0.00579  1
 O  O8  1  0.84881  0.25631  0.78994  1
 O  O9  1  0.64057  0.23363  0.19753  1
 O  O10  1  0.74493  0.75664  0.00579  1
 Ti  Ti1  1  0.69622  0.49999  0.60758  1
 Ti  Ti2  1  0.39489  -0.00000  0.21024  1
