CIF file written using JARVIS-Tools package.
data_Li6VCrP2C2O14
_symmetry_space_group_name_H-M  'Pm'
_cell_length_a       4.92046
_cell_length_b       6.41699
_cell_length_c       8.59355
_cell_angle_alpha    90
_cell_angle_beta     96.0404
_cell_angle_gamma    90

_symmetry_Int_Tables_number  6
_chemical_formula_structural  Li6VCrP2C2O14
_chemical_formula_sum  Li6VCrP2C2O4
_cell_volume  269.8314923370417
_cell_formula_units_Z  1
loop_
  _symmetry_equiv_pos_site_id
 _symmetry_equiv_pos_as_xyz
 1  'x, y, z'
loop_
 _atom_site_type_symbol
 _atom_site_label
 _atom_site_symmetry_multiplicity
 _atom_site_fract_x
 _atom_site_fract_y
 _atom_site_fract_z
 _atom_site_fract_occupancy
 C  C1  1  0.67714  0.50000  0.96258  1
 C  C2  1  0.33296  0.00000  0.04066  1
 Cr  Cr1  1  0.80254  0.50000  0.66770  1
 Li  Li1  1  0.80624  0.00000  0.89636  1
 Li  Li2  1  0.27807  0.76599  0.72768  1
 Li  Li3  1  0.27807  0.23401  0.72768  1
 Li  Li4  1  0.72382  0.27187  0.27191  1
 Li  Li5  1  0.72382  0.72813  0.27191  1
 Li  Li6  1  0.19796  0.50000  0.11395  1
 O  O1  1  0.57958  0.50000  0.09651  1
 O  O2  1  0.40420  0.00000  0.90001  1
 O  O3  1  0.51178  0.50000  0.83122  1
 O  O4  1  0.84278  0.81265  0.69420  1
 O  O5  1  0.84278  0.18735  0.69420  1
 O  O6  1  0.93408  0.50000  0.95137  1
 O  O7  1  0.41302  0.00000  0.57060  1
 O  O8  1  0.51428  0.00000  0.16329  1
 O  O9  1  0.83241  0.00000  0.42739  1
 O  O10  1  0.14108  0.68570  0.30488  1
 O  O11  1  0.14108  0.31430  0.30488  1
 O  O12  1  0.16996  0.50000  0.57294  1
 O  O13  1  0.57547  0.50000  0.41604  1
 O  O14  1  0.07977  0.00000  0.06916  1
 P  P1  1  0.73191  0.00000  0.58977  1
 P  P2  1  0.25989  0.50000  0.40613  1
 V  V1  1  0.20529  0.00000  0.32698  1
