CIF file written using JARVIS-Tools package.
data_Li6CrFeP2C2O14
_symmetry_space_group_name_H-M  'Pm'
_cell_length_a       4.94592
_cell_length_b       6.33266
_cell_length_c       8.62056
_cell_angle_alpha    90
_cell_angle_beta     96.3112
_cell_angle_gamma    90

_symmetry_Int_Tables_number  6
_chemical_formula_structural  Li6CrFeP2C2O14
_chemical_formula_sum  Li6CrFeP2C2O4
_cell_volume  268.3669548279908
_cell_formula_units_Z  1
loop_
  _symmetry_equiv_pos_site_id
 _symmetry_equiv_pos_as_xyz
 1  'x, y, z'
loop_
 _atom_site_type_symbol
 _atom_site_label
 _atom_site_symmetry_multiplicity
 _atom_site_fract_x
 _atom_site_fract_y
 _atom_site_fract_z
 _atom_site_fract_occupancy
 C  C1  1  0.66666  0.00000  0.96177  1
 C  C2  1  0.32440  0.50000  0.03894  1
 Cr  Cr1  1  0.19743  0.50000  0.33156  1
 Fe  Fe1  1  0.79142  0.00000  0.66738  1
 Li  Li1  1  0.80218  0.50000  0.88792  1
 Li  Li2  1  0.27595  0.25998  0.72950  1
 Li  Li3  1  0.27595  0.74002  0.72950  1
 Li  Li4  1  0.72150  0.77053  0.26989  1
 Li  Li5  1  0.72150  0.22947  0.26989  1
 Li  Li6  1  0.19518  0.00000  0.10483  1
 O  O1  1  0.85652  0.68943  0.69432  1
 O  O2  1  0.85652  0.31057  0.69432  1
 O  O3  1  0.58913  0.00000  0.10104  1
 O  O4  1  0.42002  0.50000  0.90551  1
 O  O5  1  0.91922  0.00000  0.93994  1
 O  O6  1  0.48663  0.00000  0.83861  1
 O  O7  1  0.42606  0.50000  0.57968  1
 O  O8  1  0.48945  0.50000  0.17048  1
 O  O9  1  0.83467  0.50000  0.42770  1
 O  O10  1  0.15387  0.18853  0.30499  1
 O  O11  1  0.15387  0.81147  0.30499  1
 O  O12  1  0.17621  0.00000  0.57179  1
 O  O13  1  0.58651  0.00000  0.42279  1
 O  O14  1  0.06871  0.50000  0.05117  1
 P  P1  1  0.74057  0.50000  0.59244  1
 P  P2  1  0.26987  0.00000  0.40907  1
