CIF file written using JARVIS-Tools package.
data_C3N4
_symmetry_space_group_name_H-M  'Cmcm'
_cell_length_a       7.13344
_cell_length_b       7.13344
_cell_length_c       6.06841
_cell_angle_alpha    90
_cell_angle_beta     90
_cell_angle_gamma    120.001

_symmetry_Int_Tables_number  63
_chemical_formula_structural  C3N4
_chemical_formula_sum  C2N6
_cell_volume  267.42257282180304
_cell_formula_units_Z  4
loop_
  _symmetry_equiv_pos_site_id
 _symmetry_equiv_pos_as_xyz
 1  'x, y, z'
loop_
 _atom_site_type_symbol
 _atom_site_label
 _atom_site_symmetry_multiplicity
 _atom_site_fract_x
 _atom_site_fract_y
 _atom_site_fract_z
 _atom_site_fract_occupancy
 C  C1  1  0.25173  0.10537  0.00000  1
 C  C2  1  0.89463  0.74827  0.00000  1
 C  C3  1  0.56796  0.09495  0.00000  1
 C  C4  1  0.89401  0.10599  0.00000  1
 C  C5  1  0.90505  0.43204  0.00000  1
 C  C6  1  0.22550  0.77450  0.50000  1
 C  C7  1  0.56817  0.43183  0.00000  1
 C  C8  1  0.55155  0.78554  0.50000  1
 C  C9  1  0.55135  0.44865  0.50000  1
 C  C10  1  0.21446  0.44845  0.50000  1
 C  C11  1  0.22489  0.13222  0.50000  1
 C  C12  1  0.86778  0.77511  0.50000  1
 N  N1  1  0.00854  0.32124  0.00000  1
 N  N2  1  0.01322  0.98678  0.00000  1
 N  N3  1  0.11086  0.23274  0.50000  1
 N  N4  1  0.35225  0.99135  0.00000  1
 N  N5  1  0.68042  0.31958  0.00000  1
 N  N6  1  0.67876  0.99146  0.00000  1
 N  N7  1  0.35304  0.32148  0.00000  1
 N  N8  1  0.11097  0.55925  0.50000  1
 N  N9  1  0.76647  0.55901  0.50000  1
 N  N10  1  0.76726  0.88914  0.50000  1
 N  N11  1  0.43909  0.56091  0.50000  1
 N  N12  1  0.44075  0.88903  0.50000  1
 N  N13  1  0.00865  0.64775  0.00000  1
 N  N14  1  0.10629  0.89371  0.50000  1
 N  N15  1  0.67852  0.64696  0.00000  1
 N  N16  1  0.44099  0.23353  0.50000  1
