CIF file written using JARVIS-Tools package.
data_VP2H6O6
_symmetry_space_group_name_H-M  'C2/c'
_cell_length_a       7.24009
_cell_length_b       7.24009
_cell_length_c       7.49107
_cell_angle_alpha    63.486
_cell_angle_beta     116.514
_cell_angle_gamma    113.566

_symmetry_Int_Tables_number  15
_chemical_formula_structural  VP2H6O6
_chemical_formula_sum  V2P4H2O2
_cell_volume  304.40053871856594
_cell_formula_units_Z  2
loop_
  _symmetry_equiv_pos_site_id
 _symmetry_equiv_pos_as_xyz
 1  'x, y, z'
loop_
 _atom_site_type_symbol
 _atom_site_label
 _atom_site_symmetry_multiplicity
 _atom_site_fract_x
 _atom_site_fract_y
 _atom_site_fract_z
 _atom_site_fract_occupancy
 H  H1  1  0.07785  0.14458  0.12198  1
 H  H2  1  0.17320  0.54039  0.15232  1
 H  H3  1  0.92215  0.85542  0.87802  1
 H  H4  1  0.85542  0.92215  0.62198  1
 H  H5  1  0.14458  0.07785  0.37802  1
 H  H6  1  0.54039  0.17320  0.34768  1
 H  H7  1  0.70390  0.27852  0.11089  1
 H  H8  1  0.45961  0.82680  0.65232  1
 H  H9  1  0.82680  0.45961  0.84768  1
 H  H10  1  0.29610  0.72148  0.88911  1
 H  H11  1  0.72148  0.29610  0.61089  1
 H  H12  1  0.27852  0.70390  0.38911  1
 O  O1  1  0.67188  0.91629  0.35783  1
 O  O2  1  0.64923  0.95130  0.95154  1
 O  O3  1  0.95130  0.64923  0.54846  1
 O  O4  1  0.08371  0.32812  0.85783  1
 O  O5  1  0.04870  0.35077  0.45154  1
 O  O6  1  0.35077  0.04870  0.04846  1
 O  O7  1  0.44456  0.44456  0.75000  1
 O  O8  1  0.91629  0.67188  0.14217  1
 O  O9  1  0.55544  0.55544  0.25000  1
 O  O10  1  0.04111  0.04111  0.25000  1
 O  O11  1  0.32812  0.08371  0.64217  1
 O  O12  1  0.95889  0.95889  0.75000  1
 P  P1  1  0.89599  0.43281  0.71386  1
 P  P2  1  0.43281  0.89599  0.78614  1
 P  P3  1  0.10401  0.56719  0.28614  1
 P  P4  1  0.56719  0.10401  0.21386  1
 V  V1  1  0.76051  0.76051  0.25000  1
 V  V2  1  0.23949  0.23949  0.75000  1
