CIF file written using JARVIS-Tools package.
data_Sb2S2O
_symmetry_space_group_name_H-M  'C2/m'
_cell_length_a       4.08026
_cell_length_b       10.7269
_cell_length_c       5.87607
_cell_angle_alpha    102.918
_cell_angle_beta     110.311
_cell_angle_gamma    100.968

_symmetry_Int_Tables_number  12
_chemical_formula_structural  Sb2S2O
_chemical_formula_sum  Sb4S4O2
_cell_volume  224.77278717443787
_cell_formula_units_Z  2
loop_
  _symmetry_equiv_pos_site_id
 _symmetry_equiv_pos_as_xyz
 1  'x, y, z'
loop_
 _atom_site_type_symbol
 _atom_site_label
 _atom_site_symmetry_multiplicity
 _atom_site_fract_x
 _atom_site_fract_y
 _atom_site_fract_z
 _atom_site_fract_occupancy
 O  O1  1  0.81728  0.57051  0.06219  1
 O  O2  1  0.18810  0.42971  0.94461  1
 S  S1  1  0.07236  0.91393  0.22895  1
 S  S2  1  0.93302  0.08628  0.77785  1
 S  S3  1  0.60788  0.69960  0.51440  1
 S  S4  1  0.39750  0.30062  0.49240  1
 Sb  Sb1  1  0.33345  0.63414  0.03085  1
 Sb  Sb2  1  0.67193  0.36608  0.97595  1
 Sb  Sb3  1  0.26872  0.88187  0.65405  1
 Sb  Sb4  1  0.73667  0.11834  0.35275  1
