CIF file written using JARVIS-Tools package.
data_SmTlTe2
_symmetry_space_group_name_H-M  'R-3m'
_cell_length_a       4.49931
_cell_length_b       4.49931
_cell_length_c       8.53089
_cell_angle_alpha    74.7099
_cell_angle_beta     74.7099
_cell_angle_gamma    60.0001

_symmetry_Int_Tables_number  166
_chemical_formula_structural  SmTlTe2
_chemical_formula_sum  SmTlTe2
_cell_volume  142.45800133854485
_cell_formula_units_Z  1
loop_
  _symmetry_equiv_pos_site_id
 _symmetry_equiv_pos_as_xyz
 1  'x, y, z'
loop_
 _atom_site_type_symbol
 _atom_site_label
 _atom_site_symmetry_multiplicity
 _atom_site_fract_x
 _atom_site_fract_y
 _atom_site_fract_z
 _atom_site_fract_occupancy
 Sm  Sm1  1  0.00000  0.00000  0.00000  1
 Te  Te1  1  0.73974  0.73974  0.78077  1
 Te  Te2  1  0.26026  0.26026  0.21923  1
 Tl  Tl1  1  0.50000  0.50000  0.50000  1
