CIF file written using JARVIS-Tools package.
data_NaSmTe2
_symmetry_space_group_name_H-M  'R-3m'
_cell_length_a       4.4785
_cell_length_b       4.47849
_cell_length_c       7.90948
_cell_angle_alpha    73.5541
_cell_angle_beta     73.5541
_cell_angle_gamma    60

_symmetry_Int_Tables_number  166
_chemical_formula_structural  NaSmTe2
_chemical_formula_sum  NaSmTe2
_cell_volume  129.83765280209894
_cell_formula_units_Z  1
loop_
  _symmetry_equiv_pos_site_id
 _symmetry_equiv_pos_as_xyz
 1  'x, y, z'
loop_
 _atom_site_type_symbol
 _atom_site_label
 _atom_site_symmetry_multiplicity
 _atom_site_fract_x
 _atom_site_fract_y
 _atom_site_fract_z
 _atom_site_fract_occupancy
 Na  Na1  1  0.00000  0.00000  0.00000  1
 Sm  Sm1  1  0.50000  0.50000  0.50000  1
 Te  Te1  1  0.75347  0.75347  0.73960  1
 Te  Te2  1  0.24653  0.24653  0.26040  1
