CIF file written using JARVIS-Tools package.
data_InH5N2F2
_symmetry_space_group_name_H-M  'P2_1/c'
_cell_length_a       7.77782
_cell_length_b       5.41079
_cell_length_c       8.66687
_cell_angle_alpha    90
_cell_angle_beta     96.2204
_cell_angle_gamma    90

_symmetry_Int_Tables_number  14
_chemical_formula_structural  InH5N2F2
_chemical_formula_sum  In4H20N8F8
_cell_volume  362.5900846218023
_cell_formula_units_Z  4
loop_
  _symmetry_equiv_pos_site_id
 _symmetry_equiv_pos_as_xyz
 1  'x, y, z'
loop_
 _atom_site_type_symbol
 _atom_site_label
 _atom_site_symmetry_multiplicity
 _atom_site_fract_x
 _atom_site_fract_y
 _atom_site_fract_z
 _atom_site_fract_occupancy
 F  F1  1  0.68446  0.84403  0.99802  1
 F  F2  1  0.81554  0.34403  0.50198  1
 F  F3  1  0.93900  0.19416  0.91441  1
 F  F4  1  0.43900  0.30584  0.41441  1
 F  F5  1  0.06100  0.80584  0.08559  1
 F  F6  1  0.56100  0.69416  0.58559  1
 F  F7  1  0.18446  0.65597  0.49802  1
 F  F8  1  0.31554  0.15597  0.00198  1
 H  H1  1  0.93747  0.50407  0.83366  1
 H  H2  1  0.95722  0.78197  0.39619  1
 H  H3  1  0.45722  0.71803  0.89619  1
 H  H4  1  0.04278  0.21803  0.60381  1
 H  H5  1  0.81658  0.99568  0.43662  1
 H  H6  1  0.31658  0.50432  0.93662  1
 H  H7  1  0.18342  0.00432  0.56338  1
 H  H8  1  0.54278  0.28197  0.10381  1
 H  H9  1  0.43747  0.99593  0.33366  1
 H  H10  1  0.19152  0.25278  0.17918  1
 H  H11  1  0.56253  0.00407  0.66634  1
 H  H12  1  0.06253  0.49593  0.16634  1
 H  H13  1  0.30848  0.75278  0.32082  1
 H  H14  1  0.80848  0.74722  0.82082  1
 H  H15  1  0.69152  0.24722  0.67918  1
 H  H16  1  0.38981  0.86344  0.16232  1
 H  H17  1  0.68342  0.49568  0.06338  1
 H  H18  1  0.11019  0.36344  0.33768  1
 H  H19  1  0.61019  0.13656  0.83768  1
 H  H20  1  0.88981  0.63656  0.66232  1
 In  In1  1  0.13943  0.92737  0.85463  1
 In  In2  1  0.36057  0.42737  0.64537  1
 In  In3  1  0.86057  0.07263  0.14537  1
 In  In4  1  0.63943  0.57263  0.35463  1
 N  N1  1  0.83898  0.85969  0.35743  1
 N  N2  1  0.33898  0.64031  0.85743  1
 N  N3  1  0.16102  0.14031  0.64257  1
 N  N4  1  0.91659  0.67328  0.77885  1
 N  N5  1  0.58341  0.17328  0.72115  1
 N  N6  1  0.08341  0.32672  0.22115  1
 N  N7  1  0.66102  0.35969  0.14257  1
 N  N8  1  0.41659  0.82672  0.27885  1
