CIF file written using JARVIS-Tools package.
data_Li6MnO2F4
_symmetry_space_group_name_H-M  'P2_1/c'
_cell_length_a       5.54225
_cell_length_b       6.97475
_cell_length_c       8.25066
_cell_angle_alpha    90.0003
_cell_angle_beta     90.0132
_cell_angle_gamma    109.5

_symmetry_Int_Tables_number  14
_chemical_formula_structural  Li6MnO2F4
_chemical_formula_sum  Li2Mn2O4F8
_cell_volume  300.6431784863653
_cell_formula_units_Z  2
loop_
  _symmetry_equiv_pos_site_id
 _symmetry_equiv_pos_as_xyz
 1  'x, y, z'
loop_
 _atom_site_type_symbol
 _atom_site_label
 _atom_site_symmetry_multiplicity
 _atom_site_fract_x
 _atom_site_fract_y
 _atom_site_fract_z
 _atom_site_fract_occupancy
 F  F1  1  0.33149  0.56156  0.72635  1
 F  F2  1  0.14677  0.20718  0.50459  1
 F  F3  1  0.33207  0.06142  0.77413  1
 F  F4  1  0.66793  0.93858  0.22587  1
 F  F5  1  0.85323  0.79282  0.49541  1
 F  F6  1  0.85317  0.29272  0.00403  1
 F  F7  1  0.66851  0.43844  0.27365  1
 F  F8  1  0.14683  0.70728  -0.00403  1
 Li  Li1  1  0.02152  0.99326  0.65380  1
 Li  Li2  1  0.41269  0.82138  0.84059  1
 Li  Li3  1  0.97848  0.00674  0.34620  1
 Li  Li4  1  0.30652  0.82923  0.20373  1
 Li  Li5  1  0.41204  0.32149  0.66037  1
 Li  Li6  1  -0.02053  0.50599  0.15380  1
 Li  Li7  1  0.02053  0.49401  0.84620  1
 Li  Li8  1  0.58796  0.67851  0.33963  1
 Li  Li9  1  0.69348  0.17077  0.79627  1
 Li  Li10  1  0.30732  0.32900  0.29721  1
 Li  Li11  1  0.58731  0.17862  0.15941  1
 Li  Li12  1  0.69268  0.67100  0.70279  1
 Mn  Mn1  1  0.00000  0.50000  0.50000  1
 Mn  Mn2  1  0.00000  0.00000  0.00000  1
 O  O1  1  0.22754  0.07636  0.18201  1
 O  O2  1  0.77191  0.42388  0.68166  1
 O  O3  1  0.22809  0.57612  0.31834  1
 O  O4  1  0.77246  0.92364  0.81799  1
