CIF file written using JARVIS-Tools package.
data_C3N4
_symmetry_space_group_name_H-M  'P3_1'
_cell_length_a       4.71566
_cell_length_b       4.71567
_cell_length_c       9.78069
_cell_angle_alpha    89.9975
_cell_angle_beta     90.0016
_cell_angle_gamma    120

_symmetry_Int_Tables_number  144
_chemical_formula_structural  C3N4
_chemical_formula_sum  C9N2
_cell_volume  188.3587280984611
_cell_formula_units_Z  3
loop_
  _symmetry_equiv_pos_site_id
 _symmetry_equiv_pos_as_xyz
 1  'x, y, z'
loop_
 _atom_site_type_symbol
 _atom_site_label
 _atom_site_symmetry_multiplicity
 _atom_site_fract_x
 _atom_site_fract_y
 _atom_site_fract_z
 _atom_site_fract_occupancy
 C  C1  1  0.16561  0.31196  0.32123  1
 C  C2  1  0.63857  0.78542  0.33275  1
 C  C3  1  0.16667  0.78691  0.34583  1
 C  C4  1  0.87975  0.71309  0.67916  1
 C  C5  1  0.35471  0.18699  0.65456  1
 C  C6  1  0.88125  0.18649  0.66607  1
 C  C7  1  0.48018  0.02809  0.99942  1
 C  C8  1  0.95358  0.49999  0.01250  1
 C  C9  1  0.47968  0.50105  0.98790  1
 N  N1  1  0.19421  0.34607  0.62483  1
 N  N2  1  0.70419  0.36342  0.66730  1
 N  N3  1  0.20002  0.86656  0.66775  1
 N  N4  1  0.80012  0.66679  0.00109  1
 N  N5  1  0.72065  0.87463  0.70697  1
 N  N6  1  0.48518  0.47246  0.29150  1
 N  N7  1  0.48731  0.94601  0.37364  1
 N  N8  1  -0.00013  0.46665  0.33441  1
 N  N9  1  0.32061  0.18148  0.95817  1
 N  N10  1  0.99255  0.96247  0.33397  1
 N  N11  1  0.79205  0.17935  0.04031  1
 N  N12  1  0.30326  0.67411  0.00065  1
