CIF file written using JARVIS-Tools package.
data_TmTaO4
_symmetry_space_group_name_H-M  'Cmc2_1'
_cell_length_a       3.84163
_cell_length_b       7.88646
_cell_length_c       5.37611
_cell_angle_alpha    90
_cell_angle_beta     90
_cell_angle_gamma    104.097

_symmetry_Int_Tables_number  36
_chemical_formula_structural  TmTaO4
_chemical_formula_sum  Tm2Ta2O8
_cell_volume  157.97419094682198
_cell_formula_units_Z  2
loop_
  _symmetry_equiv_pos_site_id
 _symmetry_equiv_pos_as_xyz
 1  'x, y, z'
loop_
 _atom_site_type_symbol
 _atom_site_label
 _atom_site_symmetry_multiplicity
 _atom_site_fract_x
 _atom_site_fract_y
 _atom_site_fract_z
 _atom_site_fract_occupancy
 O  O1  1  0.10144  0.20288  0.75405  1
 O  O2  1  0.29726  0.59451  0.41279  1
 O  O3  1  0.33196  0.66392  0.91014  1
 O  O4  1  0.47749  0.95499  0.52562  1
 O  O5  1  0.52251  0.04501  0.02562  1
 O  O6  1  0.66804  0.33608  0.41014  1
 O  O7  1  0.70274  0.40549  0.91279  1
 O  O8  1  0.89856  0.79712  0.25405  1
 Ta  Ta1  1  0.41419  0.82838  0.18991  1
 Ta  Ta2  1  0.58581  0.17162  0.68991  1
 Tm  Tm1  1  0.19699  0.39399  0.12269  1
 Tm  Tm2  1  0.80301  0.60601  0.62269  1
