CIF file written using JARVIS-Tools package.
data_MoW3Se6S2
_symmetry_space_group_name_H-M  'P3m1'
_cell_length_a       3.29168
_cell_length_b       3.29166
_cell_length_c       34.476
_cell_angle_alpha    90.0003
_cell_angle_beta     90
_cell_angle_gamma    120

_symmetry_Int_Tables_number  156
_chemical_formula_structural  MoW3Se6S2
_chemical_formula_sum  MoW3Se6S2
_cell_volume  323.5045956200322
_cell_formula_units_Z  1
loop_
  _symmetry_equiv_pos_site_id
 _symmetry_equiv_pos_as_xyz
 1  'x, y, z'
loop_
 _atom_site_type_symbol
 _atom_site_label
 _atom_site_symmetry_multiplicity
 _atom_site_fract_x
 _atom_site_fract_y
 _atom_site_fract_z
 _atom_site_fract_occupancy
 Mo  Mo1  1  0.33333  0.66666  0.09194  1
 S  S1  1  0.66671  0.33341  0.42554  1
 S  S2  1  0.66671  0.33342  0.51503  1
 Se  Se1  1  0.33333  0.66667  0.33350  1
 Se  Se2  1  0.33330  0.66660  0.70550  1
 Se  Se3  1  0.66666  0.33332  0.04309  1
 Se  Se4  1  0.66667  0.33333  0.14085  1
 Se  Se5  1  0.33333  0.66666  0.23514  1
 Se  Se6  1  0.33330  0.66660  0.60718  1
 W  W1  1  0.33338  0.66675  0.47028  1
 W  W2  1  0.66666  0.33332  0.28433  1
 W  W3  1  0.66663  0.33326  0.65637  1
