CIF file written using JARVIS-Tools package.
data_Li2Ni3OF6
_symmetry_space_group_name_H-M  'P-1'
_cell_length_a       5.93702
_cell_length_b       6.51445
_cell_length_c       7.81418
_cell_angle_alpha    66.638
_cell_angle_beta     69.5124
_cell_angle_gamma    79.265

_symmetry_Int_Tables_number  2
_chemical_formula_structural  Li2Ni3OF6
_chemical_formula_sum  Li4Ni6O2F2
_cell_volume  259.5025085377623
_cell_formula_units_Z  2
loop_
  _symmetry_equiv_pos_site_id
 _symmetry_equiv_pos_as_xyz
 1  'x, y, z'
loop_
 _atom_site_type_symbol
 _atom_site_label
 _atom_site_symmetry_multiplicity
 _atom_site_fract_x
 _atom_site_fract_y
 _atom_site_fract_z
 _atom_site_fract_occupancy
 F  F1  1  0.90436  0.29430  0.56318  1
 F  F2  1  0.22833  0.01322  0.99940  1
 F  F3  1  0.82686  0.13648  0.27235  1
 F  F4  1  0.67668  0.84654  0.73004  1
 F  F5  1  0.32332  0.15346  0.26996  1
 F  F6  1  0.17314  0.86352  0.72765  1
 F  F7  1  0.77167  0.98678  0.00060  1
 F  F8  1  0.62671  0.71954  0.43850  1
 F  F9  1  0.46034  0.43704  0.86603  1
 F  F10  1  0.09564  0.70570  0.43682  1
 F  F11  1  0.53966  0.56296  0.13397  1
 F  F12  1  0.37329  0.28046  0.56150  1
 Li  Li1  1  0.31624  0.85582  0.46847  1
 Li  Li2  1  0.68376  0.14418  0.53153  1
 Li  Li3  1  0.87384  0.69896  0.93051  1
 Li  Li4  1  0.12616  0.30104  0.06949  1
 Ni  Ni1  1  0.21853  0.43039  0.34455  1
 Ni  Ni2  1  0.07452  0.16283  0.77989  1
 Ni  Ni3  1  0.64762  0.27394  0.06881  1
 Ni  Ni4  1  0.35238  0.72606  0.93119  1
 Ni  Ni5  1  0.92548  0.83717  0.22011  1
 Ni  Ni6  1  0.78147  0.56961  0.65545  1
 O  O1  1  0.06861  0.58499  0.13626  1
 O  O2  1  0.93139  0.41501  0.86374  1
