CIF file written using JARVIS-Tools package.
data_Li7CoOF7
_symmetry_space_group_name_H-M  'Pmm2'
_cell_length_a       2.86692
_cell_length_b       5.80557
_cell_length_c       8.20796
_cell_angle_alpha    90
_cell_angle_beta     90
_cell_angle_gamma    90

_symmetry_Int_Tables_number  25
_chemical_formula_structural  Li7CoOF7
_chemical_formula_sum  Li7CoOF7
_cell_volume  136.61441111825854
_cell_formula_units_Z  1
loop_
  _symmetry_equiv_pos_site_id
 _symmetry_equiv_pos_as_xyz
 1  'x, y, z'
loop_
 _atom_site_type_symbol
 _atom_site_label
 _atom_site_symmetry_multiplicity
 _atom_site_fract_x
 _atom_site_fract_y
 _atom_site_fract_z
 _atom_site_fract_occupancy
 Co  Co1  1  0.50000  0.77625  0.00000  1
 F  F1  1  0.50000  0.74207  0.74041  1
 F  F2  1  0.50000  0.25353  0.74250  1
 F  F3  1  0.00000  0.49108  0.00000  1
 F  F4  1  0.50000  0.74207  0.25959  1
 F  F5  1  0.50000  0.25353  0.25750  1
 F  F6  1  0.00000  0.99988  0.50000  1
 F  F7  1  0.00000  0.49830  0.50000  1
 Li  Li1  1  0.00000  0.49171  0.74008  1
 Li  Li2  1  0.00000  0.01259  0.75222  1
 Li  Li3  1  0.50000  0.23373  0.00000  1
 Li  Li4  1  0.00000  0.01259  0.24778  1
 Li  Li5  1  0.00000  0.49171  0.25992  1
 Li  Li6  1  0.50000  0.24694  0.50000  1
 Li  Li7  1  0.50000  0.75260  0.50000  1
 O  O1  1  0.00000  0.00139  0.00000  1
