CIF file written using JARVIS-Tools package.
data_SeBr2
_symmetry_space_group_name_H-M  'P4_2/mnm'
_cell_length_a       7.58838
_cell_length_b       7.58838
_cell_length_c       3.66056
_cell_angle_alpha    90
_cell_angle_beta     90
_cell_angle_gamma    90

_symmetry_Int_Tables_number  136
_chemical_formula_structural  SeBr2
_chemical_formula_sum  Se2Br4
_cell_volume  210.78758373812008
_cell_formula_units_Z  2
loop_
  _symmetry_equiv_pos_site_id
 _symmetry_equiv_pos_as_xyz
 1  'x, y, z'
loop_
 _atom_site_type_symbol
 _atom_site_label
 _atom_site_symmetry_multiplicity
 _atom_site_fract_x
 _atom_site_fract_y
 _atom_site_fract_z
 _atom_site_fract_occupancy
 Br  Br1  1  0.32297  0.32297  0.00000  1
 Br  Br2  1  0.67703  0.67703  0.00000  1
 Br  Br3  1  0.82296  0.17703  0.50000  1
 Br  Br4  1  0.17703  0.82296  0.50000  1
 Se  Se1  1  0.00000  0.00000  0.00000  1
 Se  Se2  1  0.50000  0.50000  0.50000  1
