CIF file written using JARVIS-Tools package.
data_Li5V4O8
_symmetry_space_group_name_H-M  'I-4m2'
_cell_length_a       5.93437
_cell_length_b       5.94224
_cell_length_c       5.94323
_cell_angle_alpha    59.907
_cell_angle_beta     60.0381
_cell_angle_gamma    60.0544

_symmetry_Int_Tables_number  119
_chemical_formula_structural  Li5V4O8
_chemical_formula_sum  Li5V4O8
_cell_volume  148.19355170377335
_cell_formula_units_Z  1
loop_
  _symmetry_equiv_pos_site_id
 _symmetry_equiv_pos_as_xyz
 1  'x, y, z'
loop_
 _atom_site_type_symbol
 _atom_site_label
 _atom_site_symmetry_multiplicity
 _atom_site_fract_x
 _atom_site_fract_y
 _atom_site_fract_z
 _atom_site_fract_occupancy
 Li  Li1  1  0.97916  0.98079  0.06107  1
 Li  Li2  1  0.98085  0.97920  0.47893  1
 Li  Li3  1  0.56106  0.97896  0.47918  1
 Li  Li4  1  0.12500  0.12501  0.62501  1
 Li  Li5  1  0.97894  0.56107  0.48085  1
 O  O1  1  0.25240  0.25377  0.75393  1
 O  O2  1  0.26096  0.74606  0.24615  1
 O  O3  1  0.74682  0.74614  0.24606  1
 O  O4  1  0.74606  0.26096  0.24683  1
 O  O5  1  0.74615  0.74683  0.76096  1
 O  O6  1  0.25377  0.25238  0.23990  1
 O  O7  1  0.73990  0.25395  0.75377  1
 O  O8  1  0.25394  0.73990  0.75240  1
 V  V1  1  0.00051  0.50004  -0.00002  1
 V  V2  1  0.49945  0.49997  0.00005  1
 V  V3  1  0.50005  0.00051  -0.00055  1
 V  V4  1  0.49998  0.49946  0.50051  1
