CIF file written using JARVIS-Tools package.
data_PrPd
_symmetry_space_group_name_H-M  'Cmcm'
_cell_length_a       3.91614
_cell_length_b       4.64693
_cell_length_c       5.82756
_cell_angle_alpha    90
_cell_angle_beta     70.3665
_cell_angle_gamma    90

_symmetry_Int_Tables_number  63
_chemical_formula_structural  PrPd
_chemical_formula_sum  Pr2Pd2
_cell_volume  99.88455611422133
_cell_formula_units_Z  2
loop_
  _symmetry_equiv_pos_site_id
 _symmetry_equiv_pos_as_xyz
 1  'x, y, z'
loop_
 _atom_site_type_symbol
 _atom_site_label
 _atom_site_symmetry_multiplicity
 _atom_site_fract_x
 _atom_site_fract_y
 _atom_site_fract_z
 _atom_site_fract_occupancy
 Pd  Pd1  1  0.41297  0.75000  0.17406  1
 Pd  Pd2  1  0.58703  0.25000  0.82594  1
 Pr  Pr1  1  0.13641  0.75000  0.72718  1
 Pr  Pr2  1  0.86359  0.25000  0.27282  1
