CIF file written using JARVIS-Tools package.
data_Li4Cr3FeO8
_symmetry_space_group_name_H-M  'C2/m'
_cell_length_a       5.02344
_cell_length_b       5.81602
_cell_length_c       5.80173
_cell_angle_alpha    60.0833
_cell_angle_beta     90.0002
_cell_angle_gamma    73.2526

_symmetry_Int_Tables_number  12
_chemical_formula_structural  Li4Cr3FeO8
_chemical_formula_sum  Li4Cr3FeO8
_cell_volume  138.56266966299611
_cell_formula_units_Z  1
loop_
  _symmetry_equiv_pos_site_id
 _symmetry_equiv_pos_as_xyz
 1  'x, y, z'
loop_
 _atom_site_type_symbol
 _atom_site_label
 _atom_site_symmetry_multiplicity
 _atom_site_fract_x
 _atom_site_fract_y
 _atom_site_fract_z
 _atom_site_fract_occupancy
 Cr  Cr1  1  -0.00000  0.50000  0.00297  1
 Cr  Cr2  1  -0.00000  0.50000  0.49703  1
 Cr  Cr3  1  0.50000  0.50000  0.75000  1
 Fe  Fe1  1  0.50000  0.50000  0.25000  1
 Li  Li1  1  0.00965  0.99671  0.00165  1
 Li  Li2  1  0.99035  0.00329  0.49835  1
 Li  Li3  1  0.50000  -0.00000  0.25000  1
 Li  Li4  1  0.50000  -0.00000  0.75000  1
 O  O1  1  0.24486  0.27256  0.36371  1
 O  O2  1  0.24189  0.27321  0.86339  1
 O  O3  1  0.74066  0.27385  0.11564  1
 O  O4  1  0.25934  0.72615  0.38436  1
 O  O5  1  0.25934  0.72615  0.88951  1
 O  O6  1  0.75514  0.72744  0.13629  1
 O  O7  1  0.74066  0.27385  0.61049  1
 O  O8  1  0.75811  0.72679  0.63661  1
