CIF file written using JARVIS-Tools package.
data_Li3VF8
_symmetry_space_group_name_H-M  'C222'
_cell_length_a       5.1896
_cell_length_b       5.18961
_cell_length_c       6.1857
_cell_angle_alpha    90
_cell_angle_beta     90
_cell_angle_gamma    114.539

_symmetry_Int_Tables_number  21
_chemical_formula_structural  Li3VF8
_chemical_formula_sum  Li3VF8
_cell_volume  151.54711580445408
_cell_formula_units_Z  1
loop_
  _symmetry_equiv_pos_site_id
 _symmetry_equiv_pos_as_xyz
 1  'x, y, z'
loop_
 _atom_site_type_symbol
 _atom_site_label
 _atom_site_symmetry_multiplicity
 _atom_site_fract_x
 _atom_site_fract_y
 _atom_site_fract_z
 _atom_site_fract_occupancy
 F  F1  1  0.29359  0.70641  0.50000  1
 F  F2  1  0.29573  0.70427  0.00000  1
 F  F3  1  0.28876  0.25911  0.70934  1
 F  F4  1  0.25911  0.28876  0.29066  1
 F  F5  1  0.74089  0.71124  0.29066  1
 F  F6  1  0.71124  0.74089  0.70934  1
 F  F7  1  0.70427  0.29573  0.00000  1
 F  F8  1  0.70641  0.29359  0.50000  1
 Li  Li1  1  -0.00000  0.50000  0.16501  1
 Li  Li2  1  0.50000  0.50000  0.00000  1
 Li  Li3  1  0.50000  0.00000  0.83499  1
 V  V1  1  0.50000  0.50000  0.50000  1
