CIF file written using JARVIS-Tools package.
data_Li5Mn3Co2O10
_symmetry_space_group_name_H-M  'P-1'
_cell_length_a       5.04726
_cell_length_b       5.06675
_cell_length_c       7.59504
_cell_angle_alpha    103.742
_cell_angle_beta     108.94
_cell_angle_gamma    99.053

_symmetry_Int_Tables_number  2
_chemical_formula_structural  Li5Mn3Co2O10
_chemical_formula_sum  Li5Mn3Co2O0
_cell_volume  172.5477569900617
_cell_formula_units_Z  1
loop_
  _symmetry_equiv_pos_site_id
 _symmetry_equiv_pos_as_xyz
 1  'x, y, z'
loop_
 _atom_site_type_symbol
 _atom_site_label
 _atom_site_symmetry_multiplicity
 _atom_site_fract_x
 _atom_site_fract_y
 _atom_site_fract_z
 _atom_site_fract_occupancy
 Co  Co1  1  0.30219  0.90019  0.30330  1
 Co  Co2  1  0.69781  0.09981  0.69670  1
 Li  Li1  1  0.90625  0.19979  0.41678  1
 Li  Li2  1  0.09375  0.80021  0.58322  1
 Li  Li3  1  0.50000  0.50000  0.50000  1
 Li  Li4  1  0.71746  0.61796  0.22489  1
 Li  Li5  1  0.28254  0.38204  0.77511  1
 Mn  Mn1  1  0.50000  0.00000  0.00000  1
 Mn  Mn2  1  0.10872  0.31184  0.11056  1
 Mn  Mn3  1  0.89128  0.68816  0.88944  1
 O  O1  1  0.32030  0.12937  0.54582  1
 O  O2  1  0.71070  0.32835  0.95454  1
 O  O3  1  0.90916  0.93050  0.14378  1
 O  O4  1  0.28930  0.67165  0.04546  1
 O  O5  1  0.67970  0.87063  0.45418  1
 O  O6  1  0.52430  0.76891  0.76151  1
 O  O7  1  0.11468  0.55917  0.33827  1
 O  O8  1  0.88532  0.44083  0.66173  1
 O  O9  1  0.47570  0.23109  0.23849  1
 O  O10  1  0.09084  0.06950  0.85622  1
