CIF file written using JARVIS-Tools package.
data_Li3VO2F2
_symmetry_space_group_name_H-M  'P2/c'
_cell_length_a       4.95223
_cell_length_b       5.86674
_cell_length_c       5.0408
_cell_angle_alpha    90
_cell_angle_beta     108.08
_cell_angle_gamma    90

_symmetry_Int_Tables_number  13
_chemical_formula_structural  Li3VO2F2
_chemical_formula_sum  Li6V2O4F4
_cell_volume  139.2207381913364
_cell_formula_units_Z  2
loop_
  _symmetry_equiv_pos_site_id
 _symmetry_equiv_pos_as_xyz
 1  'x, y, z'
loop_
 _atom_site_type_symbol
 _atom_site_label
 _atom_site_symmetry_multiplicity
 _atom_site_fract_x
 _atom_site_fract_y
 _atom_site_fract_z
 _atom_site_fract_occupancy
 F  F1  1  0.00572  0.62674  0.75332  1
 F  F2  1  0.50572  0.37326  0.75332  1
 F  F3  1  0.49428  0.62674  0.24668  1
 F  F4  1  0.99428  0.37326  0.24668  1
 Li  Li1  1  0.25000  0.11586  0.50000  1
 Li  Li2  1  0.25000  0.64010  0.50000  1
 Li  Li3  1  0.25000  0.37558  -0.00000  1
 Li  Li4  1  0.75000  0.35990  0.50000  1
 Li  Li5  1  0.75000  0.88414  0.50000  1
 Li  Li6  1  0.75000  0.62442  -0.00000  1
 O  O1  1  0.00216  0.87118  0.23740  1
 O  O2  1  0.49784  0.87118  0.76260  1
 O  O3  1  0.50216  0.12882  0.23740  1
 O  O4  1  0.99784  0.12882  0.76260  1
 V  V1  1  0.25000  0.90157  -0.00000  1
 V  V2  1  0.75000  0.09843  -0.00000  1
