CIF file written using JARVIS-Tools package.
data_Sr6Y2Al4O15
_symmetry_space_group_name_H-M  'C2'
_cell_length_a       5.75665
_cell_length_b       9.27995
_cell_length_c       7.74692
_cell_angle_alpha    90.746
_cell_angle_beta     90
_cell_angle_gamma    108.069

_symmetry_Int_Tables_number  5
_chemical_formula_structural  Sr6Y2Al4O15
_chemical_formula_sum  Sr6Y2Al4O5
_cell_volume  393.40444521434057
_cell_formula_units_Z  1
loop_
  _symmetry_equiv_pos_site_id
 _symmetry_equiv_pos_as_xyz
 1  'x, y, z'
loop_
 _atom_site_type_symbol
 _atom_site_label
 _atom_site_symmetry_multiplicity
 _atom_site_fract_x
 _atom_site_fract_y
 _atom_site_fract_z
 _atom_site_fract_occupancy
 Al  Al1  1  0.45419  0.97468  0.77275  1
 Al  Al2  1  0.47951  0.02532  0.22725  1
 Al  Al3  1  0.82965  0.61984  0.24371  1
 Al  Al4  1  0.20981  0.38016  0.75629  1
 O  O1  1  0.85121  0.68217  0.46361  1
 O  O2  1  0.86407  0.72611  0.05041  1
 O  O3  1  0.16904  0.31783  0.53639  1
 O  O4  1  0.04683  0.51914  0.23225  1
 O  O5  1  0.52769  0.48086  0.76774  1
 O  O6  1  0.53497  0.47922  0.22724  1
 O  O7  1  0.05576  0.52078  0.77276  1
 O  O8  1  0.13797  0.27389  0.94959  1
 O  O9  1  0.58075  0.82235  0.73974  1
 O  O10  1  0.13787  0.91593  0.72854  1
 O  O11  1  0.51171  0.85720  0.30785  1
 O  O12  1  0.47453  0.00000  0.00000  1
 O  O13  1  0.75840  0.17765  0.26026  1
 O  O14  1  0.22194  0.08407  0.27146  1
 O  O15  1  0.65451  0.14280  0.69215  1
 Sr  Sr1  1  0.90192  -0.00000  0.50000  1
 Sr  Sr2  1  0.96261  0.00000  0.00000  1
 Sr  Sr3  1  0.37190  0.68023  0.03139  1
 Sr  Sr4  1  0.69167  0.31977  0.96861  1
 Sr  Sr5  1  0.33898  0.65177  0.49528  1
 Sr  Sr6  1  0.68722  0.34823  0.50472  1
 Y  Y1  1  0.16461  0.31314  0.24647  1
 Y  Y2  1  0.85147  0.68686  0.75353  1
