CIF file written using JARVIS-Tools package.
data_Li2VC2O6
_symmetry_space_group_name_H-M  'Fdd2'
_cell_length_a       5.24519
_cell_length_b       6.21321
_cell_length_c       8.65898
_cell_angle_alpha    82.675
_cell_angle_beta     107.608
_cell_angle_gamma    114.965

_symmetry_Int_Tables_number  43
_chemical_formula_structural  Li2VC2O6
_chemical_formula_sum  Li4V2C4O2
_cell_volume  243.83968223875092
_cell_formula_units_Z  2
loop_
  _symmetry_equiv_pos_site_id
 _symmetry_equiv_pos_as_xyz
 1  'x, y, z'
loop_
 _atom_site_type_symbol
 _atom_site_label
 _atom_site_symmetry_multiplicity
 _atom_site_fract_x
 _atom_site_fract_y
 _atom_site_fract_z
 _atom_site_fract_occupancy
 C  C1  1  0.84083  0.60295  0.19966  1
 C  C2  1  0.39171  0.10283  0.30076  1
 C  C3  1  -0.00573  0.90899  0.69969  1
 C  C4  1  0.04451  0.40895  0.80078  1
 Li  Li1  1  0.21340  0.45974  0.16741  1
 Li  Li2  1  0.79639  0.96000  0.33331  1
 Li  Li3  1  0.50946  0.05188  0.66722  1
 Li  Li4  1  0.59234  0.55210  0.83312  1
 O  O1  1  0.15465  0.36213  0.94889  1
 O  O2  1  0.04657  0.55697  0.30554  1
 O  O3  1  0.84963  0.64989  0.05153  1
 O  O4  1  0.13110  0.10344  0.24578  1
 O  O5  1  0.49120  0.05686  0.19463  1
 O  O6  1  0.54896  0.14950  0.44885  1
 O  O7  1  0.78815  0.90850  0.75477  1
 O  O8  1  0.24582  0.95495  0.80574  1
 O  O9  1  0.95667  0.86223  0.55158  1
 O  O10  1  0.63536  0.60331  0.25497  1
 O  O11  1  0.19024  0.45490  0.69479  1
 O  O12  1  0.78337  0.40848  0.74561  1
 V  V1  1  0.11686  0.00597  0.00023  1
 V  V2  1  0.86693  0.50588  0.50023  1
