CIF file written using JARVIS-Tools package.
data_LiVBO4
_symmetry_space_group_name_H-M  'I-4'
_cell_length_a       4.54662
_cell_length_b       4.82313
_cell_length_c       4.54662
_cell_angle_alpha    61.879
_cell_angle_beta     90
_cell_angle_gamma    118.121

_symmetry_Int_Tables_number  82
_chemical_formula_structural  LiVBO4
_chemical_formula_sum  LiVBO4
_cell_volume  74.32277368706332
_cell_formula_units_Z  1
loop_
  _symmetry_equiv_pos_site_id
 _symmetry_equiv_pos_as_xyz
 1  'x, y, z'
loop_
 _atom_site_type_symbol
 _atom_site_label
 _atom_site_symmetry_multiplicity
 _atom_site_fract_x
 _atom_site_fract_y
 _atom_site_fract_z
 _atom_site_fract_occupancy
 B  B1  1  0.75000  0.50000  0.75000  1
 Li  Li1  1  0.50000  0.00000  0.50000  1
 O  O1  1  0.42555  0.26578  0.03681  1
 O  O2  1  0.69741  0.73422  0.42555  1
 O  O3  1  0.84023  0.26578  0.69741  1
 O  O4  1  0.03681  0.73422  0.84023  1
 V  V1  1  0.00000  0.00000  0.00000  1
