CIF file written using JARVIS-Tools package.
data_Li4Fe3CoO8
_symmetry_space_group_name_H-M  'P1'
_cell_length_a       5.0704
_cell_length_b       5.46077
_cell_length_c       6.36382
_cell_angle_alpha    90.2705
_cell_angle_beta     90.087
_cell_angle_gamma    90.3887

_symmetry_Int_Tables_number  1
_chemical_formula_structural  Li4Fe3CoO8
_chemical_formula_sum  Li4Fe3CoO8
_cell_volume  176.19678920491972
_cell_formula_units_Z  1
loop_
  _symmetry_equiv_pos_site_id
 _symmetry_equiv_pos_as_xyz
 1  'x, y, z'
loop_
 _atom_site_type_symbol
 _atom_site_label
 _atom_site_symmetry_multiplicity
 _atom_site_fract_x
 _atom_site_fract_y
 _atom_site_fract_z
 _atom_site_fract_occupancy
 Co  Co1  1  0.50299  0.91479  0.87072  1
 Fe  Fe1  1  0.00468  0.08243  0.12278  1
 Fe  Fe2  1  0.49590  0.41493  0.62976  1
 Fe  Fe3  1  0.99809  0.58344  0.37581  1
 Li  Li1  1  0.99429  0.08399  0.62588  1
 Li  Li2  1  0.49893  0.41846  0.12328  1
 Li  Li3  1  0.99471  0.58229  0.87662  1
 Li  Li4  1  0.49904  0.91581  0.37461  1
 O  O1  1  0.36643  0.06950  0.11012  1
 O  O2  1  0.39054  0.09178  0.63873  1
 O  O3  1  0.88570  0.41202  0.12964  1
 O  O4  1  0.87453  0.42311  0.62101  1
 O  O5  1  0.37499  0.57306  0.38158  1
 O  O6  1  0.39023  0.59222  0.86274  1
 O  O7  1  0.88714  0.91517  0.36887  1
 O  O8  1  0.86821  0.92699  0.88785  1
