CIF file written using JARVIS-Tools package.
data_Li3VF8
_symmetry_space_group_name_H-M  'C2/m'
_cell_length_a       5.31114
_cell_length_b       6.64104
_cell_length_c       6.64104
_cell_angle_alpha    90.4928
_cell_angle_beta     56.8568
_cell_angle_gamma    56.8568

_symmetry_Int_Tables_number  12
_chemical_formula_structural  Li3VF8
_chemical_formula_sum  Li3VF8
_cell_volume  147.57979218102912
_cell_formula_units_Z  1
loop_
  _symmetry_equiv_pos_site_id
 _symmetry_equiv_pos_as_xyz
 1  'x, y, z'
loop_
 _atom_site_type_symbol
 _atom_site_label
 _atom_site_symmetry_multiplicity
 _atom_site_fract_x
 _atom_site_fract_y
 _atom_site_fract_z
 _atom_site_fract_occupancy
 F  F1  1  0.07960  0.15898  0.15898  1
 F  F2  1  0.00000  0.19105  0.80895  1
 F  F3  1  -0.00000  0.80895  0.19105  1
 F  F4  1  0.92040  0.84102  0.84102  1
 F  F5  1  0.47112  0.26559  0.26559  1
 F  F6  1  0.50000  0.30778  0.69222  1
 F  F7  1  0.50000  0.69222  0.30778  1
 F  F8  1  0.52888  0.73441  0.73441  1
 Li  Li1  1  0.00000  -0.00000  0.50000  1
 Li  Li2  1  0.00000  0.50000  0.00000  1
 Li  Li3  1  0.50000  0.50000  0.50000  1
 V  V1  1  0.00000  0.00000  0.00000  1
