CIF file written using JARVIS-Tools package.
data_Li4VF8
_symmetry_space_group_name_H-M  'P2'
_cell_length_a       4.98852
_cell_length_b       6.03813
_cell_length_c       5.15582
_cell_angle_alpha    90
_cell_angle_beta     111.027
_cell_angle_gamma    90

_symmetry_Int_Tables_number  3
_chemical_formula_structural  Li4VF8
_chemical_formula_sum  Li4VF8
_cell_volume  144.95882657902501
_cell_formula_units_Z  1
loop_
  _symmetry_equiv_pos_site_id
 _symmetry_equiv_pos_as_xyz
 1  'x, y, z'
loop_
 _atom_site_type_symbol
 _atom_site_label
 _atom_site_symmetry_multiplicity
 _atom_site_fract_x
 _atom_site_fract_y
 _atom_site_fract_z
 _atom_site_fract_occupancy
 F  F1  1  0.70870  0.51291  0.26407  1
 F  F2  1  0.70295  0.98243  0.25741  1
 F  F3  1  0.73954  0.72204  0.71278  1
 F  F4  1  0.71468  0.27278  0.73030  1
 F  F5  1  0.28532  0.27278  0.26970  1
 F  F6  1  0.26046  0.72204  0.28722  1
 F  F7  1  0.29705  0.98243  0.74259  1
 F  F8  1  0.29130  0.51291  0.73593  1
 Li  Li1  1  -0.00000  0.82195  0.50000  1
 Li  Li2  1  0.50000  0.00668  0.50000  1
 Li  Li3  1  0.50000  0.76739  0.00000  1
 Li  Li4  1  0.50000  0.20351  0.00000  1
 V  V1  1  0.50000  0.49367  0.50000  1
