CIF file written using JARVIS-Tools package.
data_LiVF4
_symmetry_space_group_name_H-M  'I4_1/a'
_cell_length_a       4.87403
_cell_length_b       6.01622
_cell_length_c       4.87404
_cell_angle_alpha    66.1042
_cell_angle_beta     90
_cell_angle_gamma    113.896

_symmetry_Int_Tables_number  88
_chemical_formula_structural  LiVF4
_chemical_formula_sum  Li2V2F8
_cell_volume  117.14652192165879
_cell_formula_units_Z  2
loop_
  _symmetry_equiv_pos_site_id
 _symmetry_equiv_pos_as_xyz
 1  'x, y, z'
loop_
 _atom_site_type_symbol
 _atom_site_label
 _atom_site_symmetry_multiplicity
 _atom_site_fract_x
 _atom_site_fract_y
 _atom_site_fract_z
 _atom_site_fract_occupancy
 F  F1  1  0.98818  0.06111  0.69679  1
 F  F2  1  0.57293  0.06111  0.24211  1
 F  F3  1  0.69679  0.43889  0.57293  1
 F  F4  1  0.75789  0.56111  0.01182  1
 F  F5  1  0.30321  0.56111  0.42707  1
 F  F6  1  0.24211  0.43889  0.98818  1
 F  F7  1  0.42707  0.93889  0.75789  1
 F  F8  1  0.01182  0.93889  0.30321  1
 Li  Li1  1  0.87500  0.25000  0.87500  1
 Li  Li2  1  0.12500  0.75000  0.12500  1
 V  V1  1  0.62500  0.75000  0.62500  1
 V  V2  1  0.37500  0.25000  0.37500  1
