CIF file written using JARVIS-Tools package.
data_Li3V2F9
_symmetry_space_group_name_H-M  'P3c1'
_cell_length_a       5.00471
_cell_length_b       5.00471
_cell_length_c       13.8816
_cell_angle_alpha    90.0001
_cell_angle_beta     89.9998
_cell_angle_gamma    120

_symmetry_Int_Tables_number  158
_chemical_formula_structural  Li3V2F9
_chemical_formula_sum  Li6V4F8
_cell_volume  301.1129562774484
_cell_formula_units_Z  2
loop_
  _symmetry_equiv_pos_site_id
 _symmetry_equiv_pos_as_xyz
 1  'x, y, z'
loop_
 _atom_site_type_symbol
 _atom_site_label
 _atom_site_symmetry_multiplicity
 _atom_site_fract_x
 _atom_site_fract_y
 _atom_site_fract_z
 _atom_site_fract_occupancy
 F  F1  1  0.71095  0.01759  0.75135  1
 F  F2  1  0.67189  0.01717  0.41525  1
 F  F3  1  0.98284  0.32808  0.91528  1
 F  F4  1  0.34524  0.01714  0.91528  1
 F  F5  1  0.31792  0.99378  0.57907  1
 F  F6  1  0.30660  0.28899  0.75135  1
 F  F7  1  0.98286  0.65473  0.41526  1
 F  F8  1  0.31807  0.32421  0.07910  1
 F  F9  1  0.34529  0.32815  0.41526  1
 F  F10  1  0.98248  0.28908  0.25134  1
 F  F11  1  0.71098  0.69340  0.25134  1
 F  F12  1  0.67578  0.68203  0.57907  1
 F  F13  1  0.67586  0.99383  0.07910  1
 F  F14  1  0.30666  0.01759  0.25135  1
 F  F15  1  0.00624  0.68201  0.07910  1
 F  F16  1  0.98234  0.69334  0.75134  1
 F  F17  1  0.00617  0.32416  0.57907  1
 F  F18  1  0.67190  0.65472  0.91529  1
 Li  Li1  1  0.33330  0.66666  0.50012  1
 Li  Li2  1  0.33338  0.66667  0.00021  1
 Li  Li3  1  0.66671  0.33336  0.31721  1
 Li  Li4  1  0.66672  0.33335  0.01586  1
 Li  Li5  1  0.66663  0.33333  0.51584  1
 Li  Li6  1  0.66663  0.33331  0.81725  1
 V  V1  1  0.99998  0.99998  0.84825  1
 V  V2  1  0.99996  0.99998  0.65193  1
 V  V3  1  0.00003  0.00002  0.34824  1
 V  V4  1  0.00005  0.00002  0.15194  1
