CIF file written using JARVIS-Tools package.
data_BiClF8
_symmetry_space_group_name_H-M  'P-1'
_cell_length_a       5.10396
_cell_length_b       5.71893
_cell_length_c       10.5097
_cell_angle_alpha    90.8279
_cell_angle_beta     95.4195
_cell_angle_gamma    94.0234

_symmetry_Int_Tables_number  2
_chemical_formula_structural  BiClF8
_chemical_formula_sum  Bi2Cl2F6
_cell_volume  304.5773436941553
_cell_formula_units_Z  2
loop_
  _symmetry_equiv_pos_site_id
 _symmetry_equiv_pos_as_xyz
 1  'x, y, z'
loop_
 _atom_site_type_symbol
 _atom_site_label
 _atom_site_symmetry_multiplicity
 _atom_site_fract_x
 _atom_site_fract_y
 _atom_site_fract_z
 _atom_site_fract_occupancy
 Bi  Bi1  1  0.00000  0.00000  0.00000  1
 Bi  Bi2  1  0.00000  -0.00000  0.50000  1
 Cl  Cl1  1  0.57083  0.60324  0.24843  1
 Cl  Cl2  1  0.42917  0.39676  0.75157  1
 F  F1  1  0.18131  0.82919  0.64846  1
 F  F2  1  0.69944  0.05227  0.60954  1
 F  F3  1  0.30056  0.94773  0.39046  1
 F  F4  1  0.39898  0.55183  0.11142  1
 F  F5  1  0.60102  0.44817  0.88858  1
 F  F6  1  0.35535  0.46804  0.33099  1
 F  F7  1  0.64465  0.53196  0.66901  1
 F  F8  1  0.35781  0.04843  0.10501  1
 F  F9  1  0.88828  0.28817  0.09087  1
 F  F10  1  0.64219  0.95157  0.89499  1
 F  F11  1  0.88187  0.78119  0.14891  1
 F  F12  1  0.11813  0.21881  0.85109  1
 F  F13  1  0.81178  0.67409  0.42974  1
 F  F14  1  0.18822  0.32591  0.57026  1
 F  F15  1  0.81869  0.17081  0.35154  1
 F  F16  1  0.11172  0.71183  0.90913  1
