CIF file written using JARVIS-Tools package.
data_LiVF4
_symmetry_space_group_name_H-M  'P2/m'
_cell_length_a       4.59665
_cell_length_b       3.08802
_cell_length_c       6.41841
_cell_angle_alpha    90
_cell_angle_beta     134.019
_cell_angle_gamma    90

_symmetry_Int_Tables_number  10
_chemical_formula_structural  LiVF4
_chemical_formula_sum  LiVF4
_cell_volume  65.51502888530727
_cell_formula_units_Z  1
loop_
  _symmetry_equiv_pos_site_id
 _symmetry_equiv_pos_as_xyz
 1  'x, y, z'
loop_
 _atom_site_type_symbol
 _atom_site_label
 _atom_site_symmetry_multiplicity
 _atom_site_fract_x
 _atom_site_fract_y
 _atom_site_fract_z
 _atom_site_fract_occupancy
 F  F1  1  -0.00209  0.00000  0.70375  1
 F  F2  1  0.61719  0.50000  0.80998  1
 F  F3  1  0.38281  0.50000  0.19002  1
 F  F4  1  0.00209  0.00000  0.29625  1
 Li  Li1  1  0.00000  0.50000  0.50000  1
 V  V1  1  0.00000  0.00000  0.00000  1
