CIF file written using JARVIS-Tools package.
data_CoAgO3
_symmetry_space_group_name_H-M  'R-3'
_cell_length_a       5.82662
_cell_length_b       5.82662
_cell_length_c       5.82662
_cell_angle_alpha    50.6894
_cell_angle_beta     50.6894
_cell_angle_gamma    50.6894

_symmetry_Int_Tables_number  148
_chemical_formula_structural  CoAgO3
_chemical_formula_sum  Co2Ag2O6
_cell_volume  109.15024086324317
_cell_formula_units_Z  2
loop_
  _symmetry_equiv_pos_site_id
 _symmetry_equiv_pos_as_xyz
 1  'x, y, z'
loop_
 _atom_site_type_symbol
 _atom_site_label
 _atom_site_symmetry_multiplicity
 _atom_site_fract_x
 _atom_site_fract_y
 _atom_site_fract_z
 _atom_site_fract_occupancy
 Ag  Ag1  1  0.36368  0.36368  0.36368  1
 Ag  Ag2  1  0.63632  0.63632  0.63632  1
 Co  Co1  1  0.16250  0.16250  0.16250  1
 Co  Co2  1  0.83750  0.83750  0.83750  1
 O  O1  1  0.04063  0.81314  0.43964  1
 O  O2  1  0.56036  0.95937  0.18686  1
 O  O3  1  0.18686  0.56036  0.95937  1
 O  O4  1  0.81314  0.43964  0.04063  1
 O  O5  1  0.43964  0.04063  0.81314  1
 O  O6  1  0.95937  0.18686  0.56036  1
