CIF file written using JARVIS-Tools package.
data_Li8SbS6
_symmetry_space_group_name_H-M  'R-3'
_cell_length_a       6.81313
_cell_length_b       7.42778
_cell_length_c       6.81313
_cell_angle_alpha    117.298
_cell_angle_beta     59.9999
_cell_angle_gamma    117.299

_symmetry_Int_Tables_number  148
_chemical_formula_structural  Li8SbS6
_chemical_formula_sum  Li8SbS6
_cell_volume  253.28726909708362
_cell_formula_units_Z  1
loop_
  _symmetry_equiv_pos_site_id
 _symmetry_equiv_pos_as_xyz
 1  'x, y, z'
loop_
 _atom_site_type_symbol
 _atom_site_label
 _atom_site_symmetry_multiplicity
 _atom_site_fract_x
 _atom_site_fract_y
 _atom_site_fract_z
 _atom_site_fract_occupancy
 Li  Li1  1  0.10748  0.36451  0.47355  1
 Li  Li2  1  0.52645  0.63549  0.21652  1
 Li  Li3  1  0.21652  0.63549  0.89252  1
 Li  Li4  1  0.34065  0.02195  0.34065  1
 Li  Li5  1  0.65935  0.97805  0.65935  1
 Li  Li6  1  0.78348  0.36451  0.10748  1
 Li  Li7  1  0.47355  0.36451  0.78348  1
 Li  Li8  1  0.89252  0.63549  0.52645  1
 S  S1  1  0.24596  0.75687  0.60293  1
 S  S2  1  0.39707  0.24313  0.09202  1
 S  S3  1  0.09202  0.24313  0.75404  1
 S  S4  1  0.90798  0.75687  0.24596  1
 S  S5  1  0.60293  0.75687  0.90798  1
 S  S6  1  0.75404  0.24313  0.39707  1
 Sb  Sb1  1  0.00000  0.00000  0.00000  1
