CIF file written using JARVIS-Tools package.
data_Li6VCoP2C2O14
_symmetry_space_group_name_H-M  'Pm'
_cell_length_a       4.92383
_cell_length_b       6.40301
_cell_length_c       8.4725
_cell_angle_alpha    90
_cell_angle_beta     96.5483
_cell_angle_gamma    90

_symmetry_Int_Tables_number  6
_chemical_formula_structural  Li6VCoP2C2O14
_chemical_formula_sum  Li6VCoP2C2O4
_cell_volume  265.37272694213726
_cell_formula_units_Z  1
loop_
  _symmetry_equiv_pos_site_id
 _symmetry_equiv_pos_as_xyz
 1  'x, y, z'
loop_
 _atom_site_type_symbol
 _atom_site_label
 _atom_site_symmetry_multiplicity
 _atom_site_fract_x
 _atom_site_fract_y
 _atom_site_fract_z
 _atom_site_fract_occupancy
 C  C1  1  0.67094  0.50000  0.96036  1
 C  C2  1  0.32951  0.00000  0.03715  1
 Co  Co1  1  0.21224  0.00000  0.33021  1
 Li  Li1  1  0.79736  0.00000  0.89683  1
 Li  Li2  1  0.26766  0.77599  0.72392  1
 Li  Li3  1  0.26766  0.22401  0.72392  1
 Li  Li4  1  0.73587  0.25259  0.27393  1
 Li  Li5  1  0.73587  0.74741  0.27393  1
 Li  Li6  1  0.19912  0.50000  0.10684  1
 O  O1  1  0.60093  0.50000  0.10158  1
 O  O2  1  0.40011  0.00000  0.89395  1
 O  O3  1  0.48929  0.50000  0.83440  1
 O  O4  1  0.84098  0.81341  0.69727  1
 O  O5  1  0.84098  0.18659  0.69727  1
 O  O6  1  0.92407  0.50000  0.93074  1
 O  O7  1  0.41080  0.00000  0.57295  1
 O  O8  1  0.51562  0.00000  0.15944  1
 O  O9  1  0.83068  0.00000  0.42709  1
 O  O10  1  0.16098  0.68755  0.30391  1
 O  O11  1  0.16098  0.31245  0.30391  1
 O  O12  1  0.15849  0.50000  0.57415  1
 O  O13  1  0.58531  0.50000  0.43848  1
 O  O14  1  0.07733  0.00000  0.06311  1
 P  P1  1  0.72824  0.00000  0.59031  1
 P  P2  1  0.26572  0.50000  0.41010  1
 V  V1  1  0.79329  0.50000  0.67430  1
