CIF file written using JARVIS-Tools package.
data_Li3MgPCO7
_symmetry_space_group_name_H-M  'P2_1/m'
_cell_length_a       4.94419
_cell_length_b       6.37831
_cell_length_c       8.36146
_cell_angle_alpha    90
_cell_angle_beta     95.8259
_cell_angle_gamma    90

_symmetry_Int_Tables_number  11
_chemical_formula_structural  Li3MgPCO7
_chemical_formula_sum  Li6Mg2P2C2O4
_cell_volume  262.3215211025469
_cell_formula_units_Z  2
loop_
  _symmetry_equiv_pos_site_id
 _symmetry_equiv_pos_as_xyz
 1  'x, y, z'
loop_
 _atom_site_type_symbol
 _atom_site_label
 _atom_site_symmetry_multiplicity
 _atom_site_fract_x
 _atom_site_fract_y
 _atom_site_fract_z
 _atom_site_fract_occupancy
 C  C1  1  0.31852  0.25000  0.04063  1
 C  C2  1  0.68148  0.75000  0.95937  1
 Li  Li1  1  0.20877  0.75000  0.10349  1
 Li  Li2  1  0.73482  0.98233  0.26985  1
 Li  Li3  1  0.73482  0.51767  0.26985  1
 Li  Li4  1  0.26518  0.48233  0.73015  1
 Li  Li5  1  0.26518  0.01767  0.73015  1
 Li  Li6  1  0.79123  0.25000  0.89651  1
 Mg  Mg1  1  0.20850  0.25000  0.33575  1
 Mg  Mg2  1  0.79150  0.75000  0.66425  1
 O  O1  1  0.16462  0.56054  0.30661  1
 O  O2  1  0.16462  0.93946  0.30661  1
 O  O3  1  0.39022  0.25000  0.89548  1
 O  O4  1  0.60978  0.75000  0.10452  1
 O  O5  1  0.06677  0.25000  0.06857  1
 O  O6  1  0.50242  0.25000  0.16402  1
 O  O7  1  0.83794  0.25000  0.42203  1
 O  O8  1  0.49758  0.75000  0.83598  1
 O  O9  1  0.41453  0.25000  0.56369  1
 O  O10  1  0.83538  0.43946  0.69339  1
 O  O11  1  0.83538  0.06054  0.69339  1
 O  O12  1  0.58547  0.75000  0.43631  1
 O  O13  1  0.16206  0.75000  0.57797  1
 O  O14  1  0.93323  0.75000  0.93143  1
 P  P1  1  0.26837  0.75000  0.41173  1
 P  P2  1  0.73163  0.25000  0.58827  1
