CIF file written using JARVIS-Tools package.
data_SiH3F
_symmetry_space_group_name_H-M  'P2_1/c'
_cell_length_a       4.58202
_cell_length_b       7.40799
_cell_length_c       7.52796
_cell_angle_alpha    90
_cell_angle_beta     96.2113
_cell_angle_gamma    90

_symmetry_Int_Tables_number  14
_chemical_formula_structural  SiH3F
_chemical_formula_sum  Si4H2F4
_cell_volume  254.0256861894261
_cell_formula_units_Z  4
loop_
  _symmetry_equiv_pos_site_id
 _symmetry_equiv_pos_as_xyz
 1  'x, y, z'
loop_
 _atom_site_type_symbol
 _atom_site_label
 _atom_site_symmetry_multiplicity
 _atom_site_fract_x
 _atom_site_fract_y
 _atom_site_fract_z
 _atom_site_fract_occupancy
 F  F1  1  0.50996  0.66420  0.40242  1
 F  F2  1  0.49004  0.33580  0.59758  1
 F  F3  1  0.00996  0.83580  0.90242  1
 F  F4  1  0.99004  0.16420  0.09758  1
 H  H1  1  -0.01080  0.77815  0.22845  1
 H  H2  1  0.21356  0.07892  0.44509  1
 H  H3  1  0.78644  0.92108  0.55491  1
 H  H4  1  0.51080  0.27815  0.27155  1
 H  H5  1  0.71356  0.42108  0.94509  1
 H  H6  1  0.28644  0.57892  0.05491  1
 H  H7  1  0.95188  0.60768  0.62225  1
 H  H8  1  0.04812  0.39232  0.37775  1
 H  H9  1  0.45188  0.89232  0.12225  1
 H  H10  1  0.48920  0.72185  0.72845  1
 H  H11  1  0.01080  0.22185  0.77155  1
 H  H12  1  0.54812  0.10768  0.87775  1
 Si  Si1  1  0.19776  0.76780  0.09081  1
 Si  Si2  1  0.30224  0.26780  0.40919  1
 Si  Si3  1  0.80224  0.23220  0.90919  1
 Si  Si4  1  0.69776  0.73220  0.59081  1
