CIF file written using JARVIS-Tools package.
data_KGeBr3
_symmetry_space_group_name_H-M  'P1'
_cell_length_a       5.53959
_cell_length_b       5.54041
_cell_length_c       5.54201
_cell_angle_alpha    87.9875
_cell_angle_beta     88.0262
_cell_angle_gamma    88.0733

_symmetry_Int_Tables_number  1
_chemical_formula_structural  KGeBr3
_chemical_formula_sum  KGeBr3
_cell_volume  169.79769773722435
_cell_formula_units_Z  1
loop_
  _symmetry_equiv_pos_site_id
 _symmetry_equiv_pos_as_xyz
 1  'x, y, z'
loop_
 _atom_site_type_symbol
 _atom_site_label
 _atom_site_symmetry_multiplicity
 _atom_site_fract_x
 _atom_site_fract_y
 _atom_site_fract_z
 _atom_site_fract_occupancy
 Br  Br1  1  0.50382  0.01693  0.51490  1
 Br  Br2  1  0.00475  0.51584  0.51446  1
 Br  Br3  1  0.50397  0.51660  0.01539  1
 Ge  Ge1  1  0.47622  0.48831  0.48641  1
 K  K1  1  0.95125  0.96232  0.95884  1
