CIF file written using JARVIS-Tools package.
data_KPF6
_symmetry_space_group_name_H-M  'R-3'
_cell_length_a       4.74177
_cell_length_b       4.74177
_cell_length_c       4.74177
_cell_angle_alpha    97.6031
_cell_angle_beta     97.6031
_cell_angle_gamma    97.6031

_symmetry_Int_Tables_number  148
_chemical_formula_structural  KPF6
_chemical_formula_sum  KPF6
_cell_volume  103.52448821496162
_cell_formula_units_Z  1
loop_
  _symmetry_equiv_pos_site_id
 _symmetry_equiv_pos_as_xyz
 1  'x, y, z'
loop_
 _atom_site_type_symbol
 _atom_site_label
 _atom_site_symmetry_multiplicity
 _atom_site_fract_x
 _atom_site_fract_y
 _atom_site_fract_z
 _atom_site_fract_occupancy
 F  F1  1  0.79420  0.07639  0.72359  1
 F  F2  1  0.07639  0.72359  0.79420  1
 F  F3  1  0.27641  0.20580  0.92361  1
 F  F4  1  0.92361  0.27641  0.20580  1
 F  F5  1  0.20580  0.92361  0.27641  1
 F  F6  1  0.72359  0.79420  0.07639  1
 K  K1  1  0.50000  0.50000  0.50000  1
 P  P1  1  0.00000  0.00000  0.00000  1
