CIF file written using JARVIS-Tools package.
data_VCoO4
_symmetry_space_group_name_H-M  'Imma'
_cell_length_a       5.58831
_cell_length_b       5.58831
_cell_length_c       5.58831
_cell_angle_alpha    60.8311
_cell_angle_beta     87.1219
_cell_angle_gamma    117.542

_symmetry_Int_Tables_number  74
_chemical_formula_structural  VCoO4
_chemical_formula_sum  V2Co2O8
_cell_volume  126.26841097261213
_cell_formula_units_Z  2
loop_
  _symmetry_equiv_pos_site_id
 _symmetry_equiv_pos_as_xyz
 1  'x, y, z'
loop_
 _atom_site_type_symbol
 _atom_site_label
 _atom_site_symmetry_multiplicity
 _atom_site_fract_x
 _atom_site_fract_y
 _atom_site_fract_z
 _atom_site_fract_occupancy
 Co  Co1  1  0.50000  -0.00000  0.50000  1
 Co  Co2  1  0.00000  0.50000  0.50000  1
 O  O1  1  0.76525  0.02145  0.25620  1
 O  O2  1  0.74623  0.47347  0.28030  1
 O  O3  1  0.25377  0.97347  0.27276  1
 O  O4  1  0.22236  0.47855  0.25620  1
 O  O5  1  0.77764  0.52145  0.74380  1
 O  O6  1  0.74623  0.02653  0.72724  1
 O  O7  1  0.25377  0.52653  0.71970  1
 O  O8  1  0.23475  0.97855  0.74380  1
 V  V1  1  0.12826  0.25000  0.12174  1
 V  V2  1  0.87174  0.75000  0.87826  1
