CIF file written using JARVIS-Tools package.
data_Fe5Si3
_symmetry_space_group_name_H-M  'P6_3/mcm'
_cell_length_a       6.61423
_cell_length_b       6.61423
_cell_length_c       4.68209
_cell_angle_alpha    90
_cell_angle_beta     90
_cell_angle_gamma    120

_symmetry_Int_Tables_number  193
_chemical_formula_structural  Fe5Si3
_chemical_formula_sum  Fe0Si6
_cell_volume  177.3899809818517
_cell_formula_units_Z  2
loop_
  _symmetry_equiv_pos_site_id
 _symmetry_equiv_pos_as_xyz
 1  'x, y, z'
loop_
 _atom_site_type_symbol
 _atom_site_label
 _atom_site_symmetry_multiplicity
 _atom_site_fract_x
 _atom_site_fract_y
 _atom_site_fract_z
 _atom_site_fract_occupancy
 Fe  Fe1  1  0.23688  -0.00000  0.25000  1
 Fe  Fe2  1  0.76312  0.00000  0.75000  1
 Fe  Fe3  1  0.23688  0.23688  0.75000  1
 Fe  Fe4  1  -0.00000  0.23688  0.25000  1
 Fe  Fe5  1  0.76312  0.76312  0.25000  1
 Fe  Fe6  1  0.00000  0.76312  0.75000  1
 Fe  Fe7  1  0.33333  0.66667  0.50000  1
 Fe  Fe8  1  0.66667  0.33333  0.00000  1
 Fe  Fe9  1  0.66667  0.33333  0.50000  1
 Fe  Fe10  1  0.33333  0.66667  0.00000  1
 Si  Si1  1  0.00000  0.60447  0.25000  1
 Si  Si2  1  0.60447  0.60447  0.75000  1
 Si  Si3  1  0.39553  -0.00000  0.75000  1
 Si  Si4  1  0.60447  0.00000  0.25000  1
 Si  Si5  1  0.39553  0.39553  0.25000  1
 Si  Si6  1  -0.00000  0.39553  0.75000  1
