CIF file written using JARVIS-Tools package.
data_SbS8Cl3
_symmetry_space_group_name_H-M  'P-1'
_cell_length_a       8.06859
_cell_length_b       8.54232
_cell_length_c       10.5746
_cell_angle_alpha    93.4381
_cell_angle_beta     107.562
_cell_angle_gamma    112.029

_symmetry_Int_Tables_number  2
_chemical_formula_structural  SbS8Cl3
_chemical_formula_sum  Sb2S6Cl6
_cell_volume  631.6678042360172
_cell_formula_units_Z  2
loop_
  _symmetry_equiv_pos_site_id
 _symmetry_equiv_pos_as_xyz
 1  'x, y, z'
loop_
 _atom_site_type_symbol
 _atom_site_label
 _atom_site_symmetry_multiplicity
 _atom_site_fract_x
 _atom_site_fract_y
 _atom_site_fract_z
 _atom_site_fract_occupancy
 Cl  Cl1  1  0.24372  0.15337  0.32913  1
 Cl  Cl2  1  0.77277  0.88009  0.00674  1
 Cl  Cl3  1  0.51598  0.96111  0.20728  1
 Cl  Cl4  1  0.48402  0.03889  0.79272  1
 Cl  Cl5  1  0.75628  0.84663  0.67087  1
 Cl  Cl6  1  0.22723  0.11991  -0.00674  1
 S  S1  1  0.06347  0.76444  0.50916  1
 S  S2  1  0.83329  0.50641  0.81773  1
 S  S3  1  0.16671  0.49359  0.18227  1
 S  S4  1  0.70069  0.43102  0.61052  1
 S  S5  1  0.29931  0.56898  0.38948  1
 S  S6  1  0.70855  0.19722  0.55637  1
 S  S7  1  0.29145  0.80278  0.44363  1
 S  S8  1  0.11452  0.68053  0.85941  1
 S  S9  1  0.88548  0.31947  0.14059  1
 S  S10  1  0.71105  0.45060  0.09033  1
 S  S11  1  0.28895  0.54940  0.90967  1
 S  S12  1  0.65177  0.50997  0.25904  1
 S  S13  1  0.34823  0.49003  0.74096  1
 S  S14  1  0.83827  0.76382  0.35033  1
 S  S15  1  0.16173  0.23618  0.64967  1
 S  S16  1  0.93653  0.23556  0.49084  1
 Sb  Sb1  1  0.18808  0.92306  0.15442  1
 Sb  Sb2  1  0.81192  0.07694  0.84558  1
