CIF file written using JARVIS-Tools package.
data_PuCoC2
_symmetry_space_group_name_H-M  'Amm2'
_cell_length_a       3.6099
_cell_length_b       3.75546
_cell_length_c       3.75546
_cell_angle_alpha    105.897
_cell_angle_beta     90
_cell_angle_gamma    90

_symmetry_Int_Tables_number  38
_chemical_formula_structural  PuCoC2
_chemical_formula_sum  PuCoC2
_cell_volume  48.96514551479219
_cell_formula_units_Z  1
loop_
  _symmetry_equiv_pos_site_id
 _symmetry_equiv_pos_as_xyz
 1  'x, y, z'
loop_
 _atom_site_type_symbol
 _atom_site_label
 _atom_site_symmetry_multiplicity
 _atom_site_fract_x
 _atom_site_fract_y
 _atom_site_fract_z
 _atom_site_fract_occupancy
 C  C1  1  0.50000  0.85041  0.45667  1
 C  C2  1  0.50000  0.54333  0.14959  1
 Co  Co1  1  0.50000  0.38915  0.61085  1
 Pu  Pu1  1  0.00000  0.00212  0.99788  1
