CIF file written using JARVIS-Tools package.
data_LiFeSiO4
_symmetry_space_group_name_H-M  'Pna2_1'
_cell_length_a       6.2814
_cell_length_b       5.01588
_cell_length_c       10.6732
_cell_angle_alpha    90
_cell_angle_beta     90
_cell_angle_gamma    90

_symmetry_Int_Tables_number  33
_chemical_formula_structural  LiFeSiO4
_chemical_formula_sum  Li4Fe4Si4O6
_cell_volume  336.27760418702445
_cell_formula_units_Z  4
loop_
  _symmetry_equiv_pos_site_id
 _symmetry_equiv_pos_as_xyz
 1  'x, y, z'
loop_
 _atom_site_type_symbol
 _atom_site_label
 _atom_site_symmetry_multiplicity
 _atom_site_fract_x
 _atom_site_fract_y
 _atom_site_fract_z
 _atom_site_fract_occupancy
 Fe  Fe1  1  0.03911  0.40779  0.08346  1
 Fe  Fe2  1  0.03911  0.59221  0.58346  1
 Fe  Fe3  1  0.53911  0.90779  0.42101  1
 Fe  Fe4  1  0.53911  0.09221  0.92101  1
 Li  Li1  1  0.28892  0.40446  0.33468  1
 Li  Li2  1  0.28892  0.59554  0.83468  1
 Li  Li3  1  0.78892  0.90446  0.16978  1
 Li  Li4  1  0.78892  0.09554  0.66978  1
 O  O1  1  0.81627  0.48719  0.69128  1
 O  O2  1  0.57432  0.53699  0.39669  1
 O  O3  1  0.00784  0.51410  0.91620  1
 O  O4  1  0.26688  0.42415  0.66706  1
 O  O5  1  0.57432  0.46301  0.89669  1
 O  O6  1  0.31627  0.01281  0.31318  1
 O  O7  1  0.26688  0.57585  0.16706  1
 O  O8  1  0.00784  0.48590  0.41620  1
 O  O9  1  0.76689  0.92415  0.83740  1
 O  O10  1  0.50785  0.01410  0.58826  1
 O  O11  1  0.07433  0.96301  0.60777  1
 O  O12  1  0.50785  0.98590  0.08826  1
 O  O13  1  0.81627  0.51281  0.19128  1
 O  O14  1  0.07433  0.03699  0.10777  1
 O  O15  1  0.31627  0.98719  0.81318  1
 O  O16  1  0.76689  0.07585  0.33740  1
 Si  Si1  1  0.79227  0.40305  0.33658  1
 Si  Si2  1  0.79227  0.59695  0.83658  1
 Si  Si3  1  0.29228  0.90305  0.16788  1
 Si  Si4  1  0.29228  0.09695  0.66788  1
