CIF file written using JARVIS-Tools package.
data_VCrO3
_symmetry_space_group_name_H-M  'P1'
_cell_length_a       4.92321
_cell_length_b       5.45772
_cell_length_c       8.83923
_cell_angle_alpha    68.5728
_cell_angle_beta     106.043
_cell_angle_gamma    116.706

_symmetry_Int_Tables_number  1
_chemical_formula_structural  VCrO3
_chemical_formula_sum  V4Cr4O2
_cell_volume  195.70017451094714
_cell_formula_units_Z  4
loop_
  _symmetry_equiv_pos_site_id
 _symmetry_equiv_pos_as_xyz
 1  'x, y, z'
loop_
 _atom_site_type_symbol
 _atom_site_label
 _atom_site_symmetry_multiplicity
 _atom_site_fract_x
 _atom_site_fract_y
 _atom_site_fract_z
 _atom_site_fract_occupancy
 Cr  Cr1  1  0.98445  0.64189  0.32730  1
 Cr  Cr2  1  0.01461  0.35909  0.67271  1
 Cr  Cr3  1  0.51695  0.86125  0.17121  1
 Cr  Cr4  1  0.23538  0.38851  0.07963  1
 O  O1  1  0.06324  0.62677  0.12568  1
 O  O2  1  0.53446  0.46957  0.28300  1
 O  O3  1  0.96541  0.03248  0.21669  1
 O  O4  1  0.55791  0.12042  0.62758  1
 O  O5  1  0.94353  0.37455  0.87607  1
 O  O6  1  0.03461  0.96917  0.78005  1
 O  O7  1  0.96478  0.71442  0.53277  1
 O  O8  1  0.46817  0.53115  0.71456  1
 O  O9  1  0.53291  0.78156  0.96724  1
 O  O10  1  0.46819  0.21689  0.03495  1
 O  O11  1  0.43955  0.87533  0.37353  1
 O  O12  1  0.03098  0.28495  0.46668  1
 V  V1  1  0.72722  0.88589  0.57752  1
 V  V2  1  0.48170  0.13990  0.82809  1
 V  V3  1  0.77083  0.61170  0.92333  1
 V  V4  1  0.26511  0.11450  0.42140  1
