CIF file written using JARVIS-Tools package.
data_MgSn2O5
_symmetry_space_group_name_H-M  'Cmcm'
_cell_length_a       3.97386
_cell_length_b       5.5929
_cell_length_c       10.3094
_cell_angle_alpha    90
_cell_angle_beta     90
_cell_angle_gamma    110.809

_symmetry_Int_Tables_number  63
_chemical_formula_structural  MgSn2O5
_chemical_formula_sum  Mg2Sn4O0
_cell_volume  214.18321956134227
_cell_formula_units_Z  2
loop_
  _symmetry_equiv_pos_site_id
 _symmetry_equiv_pos_as_xyz
 1  'x, y, z'
loop_
 _atom_site_type_symbol
 _atom_site_label
 _atom_site_symmetry_multiplicity
 _atom_site_fract_x
 _atom_site_fract_y
 _atom_site_fract_z
 _atom_site_fract_occupancy
 Mg  Mg1  1  0.81245  0.62489  0.75000  1
 Mg  Mg2  1  0.18756  0.37511  0.25000  1
 O  O1  1  0.77244  0.54488  0.25000  1
 O  O2  1  0.22756  0.45512  0.75000  1
 O  O3  1  0.30475  0.60950  0.06566  1
 O  O4  1  0.69525  0.39050  0.93434  1
 O  O5  1  0.69525  0.39050  0.56566  1
 O  O6  1  0.30475  0.60950  0.43434  1
 O  O7  1  0.94806  0.89611  0.61549  1
 O  O8  1  0.05194  0.10389  0.38451  1
 O  O9  1  0.94806  0.89611  0.88451  1
 O  O10  1  0.05194  0.10389  0.11549  1
 Sn  Sn1  1  0.13499  0.26997  0.56721  1
 Sn  Sn2  1  0.86501  0.73003  0.43279  1
 Sn  Sn3  1  0.86501  0.73003  0.06721  1
 Sn  Sn4  1  0.13499  0.26997  0.93279  1
