CIF file written using JARVIS-Tools package.
data_Li2Cr3CuO8
_symmetry_space_group_name_H-M  'R3m'
_cell_length_a       5.82393
_cell_length_b       5.82393
_cell_length_c       5.82393
_cell_angle_alpha    59.4311
_cell_angle_beta     59.4311
_cell_angle_gamma    59.4311

_symmetry_Int_Tables_number  160
_chemical_formula_structural  Li2Cr3CuO8
_chemical_formula_sum  Li2Cr3CuO8
_cell_volume  137.87148508527653
_cell_formula_units_Z  1
loop_
  _symmetry_equiv_pos_site_id
 _symmetry_equiv_pos_as_xyz
 1  'x, y, z'
loop_
 _atom_site_type_symbol
 _atom_site_label
 _atom_site_symmetry_multiplicity
 _atom_site_fract_x
 _atom_site_fract_y
 _atom_site_fract_z
 _atom_site_fract_occupancy
 Cr  Cr1  1  0.00712  0.49753  0.49753  1
 Cr  Cr2  1  0.49753  0.00712  0.49753  1
 Cr  Cr3  1  0.49753  0.49753  0.00712  1
 Cu  Cu1  1  0.87820  0.87820  0.87820  1
 Li  Li1  1  0.12126  0.12126  0.12126  1
 Li  Li2  1  0.49954  0.49954  0.49954  1
 O  O1  1  0.25880  0.25880  0.25880  1
 O  O2  1  0.25007  0.25007  0.71159  1
 O  O3  1  0.25007  0.71159  0.25007  1
 O  O4  1  0.71159  0.25007  0.25007  1
 O  O5  1  0.29151  0.74854  0.74854  1
 O  O6  1  0.74854  0.29151  0.74854  1
 O  O7  1  0.74854  0.74854  0.29151  1
 O  O8  1  0.73970  0.73970  0.73970  1
