CIF file written using JARVIS-Tools package.
data_LiFeSiO4
_symmetry_space_group_name_H-M  'Pc'
_cell_length_a       4.99303
_cell_length_b       5.53039
_cell_length_c       6.0828
_cell_angle_alpha    89.9906
_cell_angle_beta     89.3377
_cell_angle_gamma    89.9852

_symmetry_Int_Tables_number  7
_chemical_formula_structural  LiFeSiO4
_chemical_formula_sum  Li2Fe2Si2O8
_cell_volume  167.95570877909597
_cell_formula_units_Z  2
loop_
  _symmetry_equiv_pos_site_id
 _symmetry_equiv_pos_as_xyz
 1  'x, y, z'
loop_
 _atom_site_type_symbol
 _atom_site_label
 _atom_site_symmetry_multiplicity
 _atom_site_fract_x
 _atom_site_fract_y
 _atom_site_fract_z
 _atom_site_fract_occupancy
 Fe  Fe1  1  0.00998  0.83243  0.99885  1
 Fe  Fe2  1  0.50984  0.16733  0.49877  1
 Li  Li1  1  0.01064  0.33369  0.74959  1
 Li  Li2  1  0.51086  0.66610  0.24963  1
 O  O1  1  0.13958  0.10423  0.52162  1
 O  O2  1  0.12172  0.70345  0.27342  1
 O  O3  1  0.07587  0.67313  0.72403  1
 O  O4  1  0.17785  0.13754  0.98134  1
 O  O5  1  0.63968  0.89556  0.02161  1
 O  O6  1  0.57577  0.32662  0.22391  1
 O  O7  1  0.62154  0.29634  0.77329  1
 O  O8  1  0.67790  0.86222  0.48135  1
 Si  Si1  1  0.00587  0.83077  0.50138  1
 Si  Si2  1  0.50580  0.16902  0.00130  1
