CIF file written using JARVIS-Tools package.
data_MoPdH12N4O4
_symmetry_space_group_name_H-M  'I4_1/amd'
_cell_length_a       9.39606
_cell_length_b       9.39566
_cell_length_c       9.39566
_cell_angle_alpha    133.185
_cell_angle_beta     133.187
_cell_angle_gamma    68.361

_symmetry_Int_Tables_number  141
_chemical_formula_structural  MoPdH12N4O4
_chemical_formula_sum  Mo2Pd2H24N8O8
_cell_volume  433.16632464731896
_cell_formula_units_Z  2
loop_
  _symmetry_equiv_pos_site_id
 _symmetry_equiv_pos_as_xyz
 1  'x, y, z'
loop_
 _atom_site_type_symbol
 _atom_site_label
 _atom_site_symmetry_multiplicity
 _atom_site_fract_x
 _atom_site_fract_y
 _atom_site_fract_z
 _atom_site_fract_occupancy
 H  H1  1  0.75035  0.69052  0.05983  1
 H  H2  1  0.69052  0.13068  0.94016  1
 H  H3  1  0.30948  0.86932  0.05984  1
 H  H4  1  0.86932  0.30948  0.55984  1
 H  H5  1  0.24965  0.30948  0.94017  1
 H  H6  1  0.30948  0.24964  0.44017  1
 H  H7  1  0.51465  0.98588  0.19422  1
 H  H8  1  0.98587  0.51465  0.69422  1
 H  H9  1  0.01413  0.48535  0.30578  1
 H  H10  1  0.29165  0.98588  0.97122  1
 H  H11  1  0.32043  0.29165  0.80578  1
 H  H12  1  0.98587  0.29165  0.47122  1
 H  H13  1  0.48535  0.67957  0.47122  1
 H  H14  1  0.70835  0.67957  0.69423  1
 H  H15  1  0.67957  0.48534  0.97122  1
 H  H16  1  0.48535  0.01412  0.80578  1
 H  H17  1  0.70835  0.01412  0.02878  1
 H  H18  1  0.67957  0.70835  0.19422  1
 H  H19  1  0.01413  0.70835  0.52878  1
 H  H20  1  0.51465  0.32043  0.52878  1
 H  H21  1  0.29165  0.32043  0.30577  1
 H  H22  1  0.32043  0.51466  0.02878  1
 H  H23  1  0.69052  0.75036  0.55983  1
 H  H24  1  0.13068  0.69052  0.44016  1
 Mo  Mo1  1  0.87500  0.12500  0.75000  1
 Mo  Mo2  1  0.12500  0.87500  0.25000  1
 N  N1  1  0.37440  0.34846  0.47407  1
 N  N2  1  0.65154  0.62560  0.02593  1
 N  N3  1  0.09967  0.62560  0.47407  1
 N  N4  1  0.62560  0.09967  0.97406  1
 N  N5  1  0.62560  0.65154  0.52593  1
 N  N6  1  0.34846  0.37440  0.97407  1
 N  N7  1  0.90033  0.37440  0.52593  1
 N  N8  1  0.37440  0.90033  0.02594  1
 O  O1  1  0.80950  0.86363  0.55414  1
 O  O2  1  0.19050  0.74464  0.05414  1
 O  O3  1  0.74464  0.19050  0.55413  1
 O  O4  1  0.13636  0.19050  0.94586  1
 O  O5  1  0.80950  0.25536  0.94586  1
 O  O6  1  0.25536  0.80950  0.44587  1
 O  O7  1  0.86364  0.80950  0.05414  1
 O  O8  1  0.19050  0.13637  0.44586  1
 Pd  Pd1  1  0.37500  0.62500  0.75000  1
 Pd  Pd2  1  0.62500  0.37500  0.25000  1
