CIF file written using JARVIS-Tools package.
data_BeCo2O4
_symmetry_space_group_name_H-M  'Fd-3m'
_cell_length_a       5.46777
_cell_length_b       5.46777
_cell_length_c       5.46777
_cell_angle_alpha    60
_cell_angle_beta     90
_cell_angle_gamma    120

_symmetry_Int_Tables_number  227
_chemical_formula_structural  BeCo2O4
_chemical_formula_sum  Be2Co4O8
_cell_volume  115.58881686919673
_cell_formula_units_Z  2
loop_
  _symmetry_equiv_pos_site_id
 _symmetry_equiv_pos_as_xyz
 1  'x, y, z'
loop_
 _atom_site_type_symbol
 _atom_site_label
 _atom_site_symmetry_multiplicity
 _atom_site_fract_x
 _atom_site_fract_y
 _atom_site_fract_z
 _atom_site_fract_occupancy
 Be  Be1  1  0.00000  0.00000  0.00000  1
 Be  Be2  1  0.25000  0.50000  0.25000  1
 Co  Co1  1  0.62500  0.25000  0.12500  1
 Co  Co2  1  0.62500  0.25000  0.62500  1
 Co  Co3  1  0.62500  0.75000  0.62500  1
 Co  Co4  1  0.12500  0.75000  0.62500  1
 O  O1  1  0.86761  0.24507  0.37746  1
 O  O2  1  0.87254  0.25493  0.87254  1
 O  O3  1  0.87254  0.74507  0.38239  1
 O  O4  1  0.37746  0.24507  0.37746  1
 O  O5  1  0.37746  0.75493  0.37746  1
 O  O6  1  0.38239  0.25493  0.87254  1
 O  O7  1  0.87254  0.74507  0.87254  1
 O  O8  1  0.37746  0.75493  0.86761  1
