CIF file written using JARVIS-Tools package.
data_Li3V6O16
_symmetry_space_group_name_H-M  'Pm'
_cell_length_a       6.69018
_cell_length_b       3.61332
_cell_length_c       11.8672
_cell_angle_alpha    90
_cell_angle_beta     104.712
_cell_angle_gamma    90

_symmetry_Int_Tables_number  6
_chemical_formula_structural  Li3V6O16
_chemical_formula_sum  Li3V6O6
_cell_volume  277.46981922201354
_cell_formula_units_Z  1
loop_
  _symmetry_equiv_pos_site_id
 _symmetry_equiv_pos_as_xyz
 1  'x, y, z'
loop_
 _atom_site_type_symbol
 _atom_site_label
 _atom_site_symmetry_multiplicity
 _atom_site_fract_x
 _atom_site_fract_y
 _atom_site_fract_z
 _atom_site_fract_occupancy
 Li  Li1  1  0.81728  0.50000  0.31912  1
 Li  Li2  1  0.18430  0.00000  0.67709  1
 Li  Li3  1  0.52736  0.50000  0.95115  1
 O  O1  1  0.18293  0.00000  0.17370  1
 O  O2  1  0.32564  0.50000  0.04615  1
 O  O3  1  0.61055  0.50000  0.54060  1
 O  O4  1  0.66269  0.00000  0.95192  1
 O  O5  1  0.87642  0.00000  0.67320  1
 O  O6  1  0.82828  0.00000  0.43710  1
 O  O7  1  0.50302  0.50000  0.27986  1
 O  O8  1  0.76580  0.00000  0.19184  1
 O  O9  1  0.24929  0.50000  0.81765  1
 O  O10  1  0.93804  0.50000  0.06845  1
 O  O11  1  0.17605  0.50000  0.56381  1
 O  O12  1  0.12734  0.50000  0.32710  1
 O  O13  1  0.49778  0.00000  0.71804  1
 O  O14  1  0.39272  0.00000  0.45904  1
 O  O15  1  0.04723  0.00000  0.92775  1
 O  O16  1  0.81023  0.50000  0.82557  1
 V  V1  1  0.73342  0.00000  0.80137  1
 V  V2  1  0.30624  0.50000  0.46371  1
 V  V3  1  0.87725  0.00000  0.08447  1
 V  V4  1  0.11777  0.50000  0.91808  1
 V  V5  1  0.69669  0.00000  0.53617  1
 V  V6  1  0.26851  0.50000  0.19690  1
