CIF file written using JARVIS-Tools package.
data_LiTiV3O10
_symmetry_space_group_name_H-M  'C2'
_cell_length_a       6.59769
_cell_length_b       6.59769
_cell_length_c       4.51819
_cell_angle_alpha    92.1042
_cell_angle_beta     87.8958
_cell_angle_gamma    89.2245

_symmetry_Int_Tables_number  5
_chemical_formula_structural  LiTiV3O10
_chemical_formula_sum  LiTiV3O0
_cell_volume  196.38752485952853
_cell_formula_units_Z  1
loop_
  _symmetry_equiv_pos_site_id
 _symmetry_equiv_pos_as_xyz
 1  'x, y, z'
loop_
 _atom_site_type_symbol
 _atom_site_label
 _atom_site_symmetry_multiplicity
 _atom_site_fract_x
 _atom_site_fract_y
 _atom_site_fract_z
 _atom_site_fract_occupancy
 Li  Li1  1  0.49925  0.99925  -0.00000  1
 O  O1  1  0.03163  0.75905  0.30054  1
 O  O2  1  0.27377  0.22404  0.26513  1
 O  O3  1  0.25905  0.53163  0.69946  1
 O  O4  1  0.26032  0.95996  0.73912  1
 O  O5  1  0.45996  0.76032  0.26088  1
 O  O6  1  0.52422  0.23600  0.74258  1
 O  O7  1  0.73600  0.02422  0.25742  1
 O  O8  1  0.74370  0.48376  0.28693  1
 O  O9  1  0.72404  0.77377  0.73487  1
 O  O10  1  0.98376  0.24370  0.71307  1
 Ti  Ti1  1  0.75137  0.25137  0.50000  1
 V  V1  1  0.25032  0.75032  0.50000  1
 V  V2  1  0.25241  0.25022  0.62438  1
 V  V3  1  0.75022  0.75241  0.37562  1
