CIF file written using JARVIS-Tools package.
data_PbBr2
_symmetry_space_group_name_H-M  'Pnma'
_cell_length_a       4.75924
_cell_length_b       8.03945
_cell_length_c       9.6695
_cell_angle_alpha    90
_cell_angle_beta     90
_cell_angle_gamma    90

_symmetry_Int_Tables_number  62
_chemical_formula_structural  PbBr2
_chemical_formula_sum  Pb4Br8
_cell_volume  369.9706296747333
_cell_formula_units_Z  4
loop_
  _symmetry_equiv_pos_site_id
 _symmetry_equiv_pos_as_xyz
 1  'x, y, z'
loop_
 _atom_site_type_symbol
 _atom_site_label
 _atom_site_symmetry_multiplicity
 _atom_site_fract_x
 _atom_site_fract_y
 _atom_site_fract_z
 _atom_site_fract_occupancy
 Br  Br1  1  0.25000  0.51544  0.33835  1
 Br  Br2  1  0.75000  0.48456  0.66165  1
 Br  Br3  1  0.25000  0.01544  0.16165  1
 Br  Br4  1  0.75000  0.98456  0.83835  1
 Br  Br5  1  0.75000  0.35824  0.08151  1
 Br  Br6  1  0.25000  0.64176  0.91849  1
 Br  Br7  1  0.75000  0.85824  0.41849  1
 Br  Br8  1  0.25000  0.14176  0.58151  1
 Pb  Pb1  1  0.25000  0.73415  0.58885  1
 Pb  Pb2  1  0.75000  0.26585  0.41115  1
 Pb  Pb3  1  0.25000  0.23415  0.91115  1
 Pb  Pb4  1  0.75000  0.76585  0.08885  1
