CIF file written using JARVIS-Tools package.
data_Li3Mn3CoO8
_symmetry_space_group_name_H-M  'R-3m'
_cell_length_a       5.65684
_cell_length_b       5.79238
_cell_length_c       5.65684
_cell_angle_alpha    119.229
_cell_angle_beta     120
_cell_angle_gamma    60.771

_symmetry_Int_Tables_number  166
_chemical_formula_structural  Li3Mn3CoO8
_chemical_formula_sum  Li3Mn3CoO8
_cell_volume  132.57285702927493
_cell_formula_units_Z  1
loop_
  _symmetry_equiv_pos_site_id
 _symmetry_equiv_pos_as_xyz
 1  'x, y, z'
loop_
 _atom_site_type_symbol
 _atom_site_label
 _atom_site_symmetry_multiplicity
 _atom_site_fract_x
 _atom_site_fract_y
 _atom_site_fract_z
 _atom_site_fract_occupancy
 Co  Co1  1  0.00000  0.00000  0.00000  1
 Li  Li1  1  -0.00000  0.50000  -0.00000  1
 Li  Li2  1  0.00000  0.50000  0.50000  1
 Li  Li3  1  0.50000  0.50000  -0.00000  1
 Mn  Mn1  1  0.00000  0.00000  0.50000  1
 Mn  Mn2  1  0.50000  -0.00000  0.00000  1
 Mn  Mn3  1  0.50000  0.00000  0.50000  1
 O  O1  1  0.25698  0.21735  0.23716  1
 O  O2  1  0.25743  0.22772  0.74257  1
 O  O3  1  0.76284  0.21735  0.23716  1
 O  O4  1  0.76284  0.21735  0.74302  1
 O  O5  1  0.23716  0.78265  0.25698  1
 O  O6  1  0.23716  0.78265  0.76284  1
 O  O7  1  0.74257  0.77228  0.25743  1
 O  O8  1  0.74302  0.78265  0.76284  1
