CIF file written using JARVIS-Tools package.
data_KCaBr3
_symmetry_space_group_name_H-M  'Cm'
_cell_length_a       5.66355
_cell_length_b       5.63901
_cell_length_c       5.63909
_cell_angle_alpha    89.9746
_cell_angle_beta     90.2708
_cell_angle_gamma    90.2848

_symmetry_Int_Tables_number  8
_chemical_formula_structural  KCaBr3
_chemical_formula_sum  KCaBr3
_cell_volume  180.09015903579999
_cell_formula_units_Z  1
loop_
  _symmetry_equiv_pos_site_id
 _symmetry_equiv_pos_as_xyz
 1  'x, y, z'
loop_
 _atom_site_type_symbol
 _atom_site_label
 _atom_site_symmetry_multiplicity
 _atom_site_fract_x
 _atom_site_fract_y
 _atom_site_fract_z
 _atom_site_fract_occupancy
 Br  Br1  1  0.54289  0.50273  -0.00170  1
 Br  Br2  1  0.02432  0.49384  0.49197  1
 Br  Br3  1  0.54308  0.00022  0.50087  1
 Ca  Ca1  1  0.52017  0.50057  0.49865  1
 K  K1  1  0.92954  0.01263  0.01021  1
