CIF file written using JARVIS-Tools package.
data_TlAgCl3
_symmetry_space_group_name_H-M  'R-3c'
_cell_length_a       7.11922
_cell_length_b       7.11922
_cell_length_c       7.11923
_cell_angle_alpha    60.6501
_cell_angle_beta     60.6501
_cell_angle_gamma    60.6501

_symmetry_Int_Tables_number  167
_chemical_formula_structural  TlAgCl3
_chemical_formula_sum  Tl2Ag2Cl6
_cell_volume  258.88738676620494
_cell_formula_units_Z  2
loop_
  _symmetry_equiv_pos_site_id
 _symmetry_equiv_pos_as_xyz
 1  'x, y, z'
loop_
 _atom_site_type_symbol
 _atom_site_label
 _atom_site_symmetry_multiplicity
 _atom_site_fract_x
 _atom_site_fract_y
 _atom_site_fract_z
 _atom_site_fract_occupancy
 Ag  Ag1  1  0.00568  0.00568  0.00568  1
 Ag  Ag2  1  0.50568  0.50568  0.50568  1
 Cl  Cl1  1  0.25568  0.79283  0.71854  1
 Cl  Cl2  1  0.79283  0.71854  0.25568  1
 Cl  Cl3  1  0.71854  0.25568  0.79283  1
 Cl  Cl4  1  0.21854  0.29283  0.75568  1
 Cl  Cl5  1  0.75568  0.21854  0.29283  1
 Cl  Cl6  1  0.29283  0.75568  0.21854  1
 Tl  Tl1  1  0.25576  0.25576  0.25576  1
 Tl  Tl2  1  0.75576  0.75576  0.75576  1
