CIF file written using JARVIS-Tools package.
data_CuAgF3
_symmetry_space_group_name_H-M  'Pm-3m'
_cell_length_a       3.98007
_cell_length_b       3.98024
_cell_length_c       3.98007
_cell_angle_alpha    89.994
_cell_angle_beta     89.9973
_cell_angle_gamma    89.9849

_symmetry_Int_Tables_number  221
_chemical_formula_structural  CuAgF3
_chemical_formula_sum  CuAgF3
_cell_volume  63.05085138608579
_cell_formula_units_Z  1
loop_
  _symmetry_equiv_pos_site_id
 _symmetry_equiv_pos_as_xyz
 1  'x, y, z'
loop_
 _atom_site_type_symbol
 _atom_site_label
 _atom_site_symmetry_multiplicity
 _atom_site_fract_x
 _atom_site_fract_y
 _atom_site_fract_z
 _atom_site_fract_occupancy
 Ag  Ag1  1  0.01181  0.00203  0.00003  1
 Cu  Cu1  1  0.51203  0.50198  0.50000  1
 F  F1  1  0.51209  0.50212  0.99999  1
 F  F2  1  0.01203  0.50188  0.49992  1
 F  F3  1  0.51203  0.00198  0.50006  1
