CIF file written using JARVIS-Tools package.
data_LiVSiO4
_symmetry_space_group_name_H-M  'P2_13'
_cell_length_a       7.22664
_cell_length_b       7.22664
_cell_length_c       7.22664
_cell_angle_alpha    90
_cell_angle_beta     90
_cell_angle_gamma    90

_symmetry_Int_Tables_number  198
_chemical_formula_structural  LiVSiO4
_chemical_formula_sum  Li4V4Si4O6
_cell_volume  377.40588458451015
_cell_formula_units_Z  4
loop_
  _symmetry_equiv_pos_site_id
 _symmetry_equiv_pos_as_xyz
 1  'x, y, z'
loop_
 _atom_site_type_symbol
 _atom_site_label
 _atom_site_symmetry_multiplicity
 _atom_site_fract_x
 _atom_site_fract_y
 _atom_site_fract_z
 _atom_site_fract_occupancy
 Li  Li1  1  0.25096  0.24904  0.75096  1
 Li  Li2  1  0.75096  0.25096  0.24904  1
 Li  Li3  1  0.74904  0.74904  0.74904  1
 Li  Li4  1  0.24904  0.75096  0.25096  1
 O  O1  1  0.68080  0.97049  0.61589  1
 O  O2  1  0.33867  0.83867  0.66133  1
 O  O3  1  0.38411  0.18080  0.52951  1
 O  O4  1  0.02951  0.11589  0.81920  1
 O  O5  1  0.52951  0.38411  0.18080  1
 O  O6  1  0.88411  0.31920  0.47049  1
 O  O7  1  0.16133  0.16133  0.16133  1
 O  O8  1  0.18080  0.52951  0.38411  1
 O  O9  1  0.31920  0.47049  0.88411  1
 O  O10  1  0.83867  0.66133  0.33867  1
 O  O11  1  0.61589  0.68080  0.97049  1
 O  O12  1  0.47049  0.88411  0.31920  1
 O  O13  1  0.66133  0.33867  0.83867  1
 O  O14  1  0.11589  0.81920  0.02951  1
 O  O15  1  0.97049  0.61589  0.68080  1
 O  O16  1  0.81920  0.02951  0.11589  1
 Si  Si1  1  0.03234  0.03234  0.03234  1
 Si  Si2  1  0.46766  0.96766  0.53234  1
 Si  Si3  1  0.53234  0.46766  0.96766  1
 Si  Si4  1  0.96766  0.53234  0.46766  1
 V  V1  1  0.69171  0.80829  0.19171  1
 V  V2  1  0.19171  0.69171  0.80829  1
 V  V3  1  0.30829  0.30829  0.30829  1
 V  V4  1  0.80829  0.19171  0.69171  1
