CIF file written using JARVIS-Tools package.
data_PrTlSe2
_symmetry_space_group_name_H-M  'R-3m'
_cell_length_a       4.33984
_cell_length_b       4.33984
_cell_length_c       8.08048
_cell_angle_alpha    74.4227
_cell_angle_beta     74.4227
_cell_angle_gamma    60

_symmetry_Int_Tables_number  166
_chemical_formula_structural  PrTlSe2
_chemical_formula_sum  PrTlSe2
_cell_volume  125.30367445297696
_cell_formula_units_Z  1
loop_
  _symmetry_equiv_pos_site_id
 _symmetry_equiv_pos_as_xyz
 1  'x, y, z'
loop_
 _atom_site_type_symbol
 _atom_site_label
 _atom_site_symmetry_multiplicity
 _atom_site_fract_x
 _atom_site_fract_y
 _atom_site_fract_z
 _atom_site_fract_occupancy
 Pr  Pr1  1  0.00000  0.00000  0.00000  1
 Se  Se1  1  0.73813  0.73813  0.78561  1
 Se  Se2  1  0.26187  0.26187  0.21439  1
 Tl  Tl1  1  0.50000  0.50000  0.50000  1
