CIF file written using JARVIS-Tools package.
data_MnCuAs
_symmetry_space_group_name_H-M  'Pnma'
_cell_length_a       3.67946
_cell_length_b       6.30046
_cell_length_c       7.6449
_cell_angle_alpha    90
_cell_angle_beta     90
_cell_angle_gamma    90

_symmetry_Int_Tables_number  62
_chemical_formula_structural  MnCuAs
_chemical_formula_sum  Mn4Cu4As4
_cell_volume  177.22628415382803
_cell_formula_units_Z  4
loop_
  _symmetry_equiv_pos_site_id
 _symmetry_equiv_pos_as_xyz
 1  'x, y, z'
loop_
 _atom_site_type_symbol
 _atom_site_label
 _atom_site_symmetry_multiplicity
 _atom_site_fract_x
 _atom_site_fract_y
 _atom_site_fract_z
 _atom_site_fract_occupancy
 As  As1  1  0.75000  0.74919  0.14420  1
 As  As2  1  0.25000  0.25081  0.85580  1
 As  As3  1  0.75000  0.24919  0.35580  1
 As  As4  1  0.25000  0.75081  0.64420  1
 Cu  Cu1  1  0.75000  0.36332  0.05382  1
 Cu  Cu2  1  0.25000  0.63668  0.94618  1
 Cu  Cu3  1  0.75000  0.86332  0.44618  1
 Cu  Cu4  1  0.25000  0.13668  0.55382  1
 Mn  Mn1  1  0.75000  0.45737  0.65371  1
 Mn  Mn2  1  0.25000  0.54263  0.34629  1
 Mn  Mn3  1  0.75000  0.95737  0.84629  1
 Mn  Mn4  1  0.25000  0.04263  0.15371  1
