CIF file written using JARVIS-Tools package.
data_TiZnGe2O6
_symmetry_space_group_name_H-M  'P2_1/c'
_cell_length_a       5.3407
_cell_length_b       8.52422
_cell_length_c       12.0022
_cell_angle_alpha    90
_cell_angle_beta     107.237
_cell_angle_gamma    90

_symmetry_Int_Tables_number  14
_chemical_formula_structural  TiZnGe2O6
_chemical_formula_sum  Ti4Zn4Ge8O24
_cell_volume  521.8642205926865
_cell_formula_units_Z  4
loop_
  _symmetry_equiv_pos_site_id
 _symmetry_equiv_pos_as_xyz
 1  'x, y, z'
loop_
 _atom_site_type_symbol
 _atom_site_label
 _atom_site_symmetry_multiplicity
 _atom_site_fract_x
 _atom_site_fract_y
 _atom_site_fract_z
 _atom_site_fract_occupancy
 Ge  Ge1  1  0.28657  0.84590  0.53752  1
 Ge  Ge2  1  0.26721  0.13510  0.06778  1
 Ge  Ge3  1  0.76721  0.36490  0.06778  1
 Ge  Ge4  1  0.71343  0.15410  0.46248  1
 Ge  Ge5  1  0.78657  0.65410  0.53752  1
 Ge  Ge6  1  0.21343  0.34590  0.46248  1
 Ge  Ge7  1  0.73279  0.86490  0.93222  1
 Ge  Ge8  1  0.23279  0.63510  0.93222  1
 O  O1  1  0.13394  0.53735  0.41690  1
 O  O2  1  0.96320  0.20294  0.39341  1
 O  O3  1  0.86606  0.46265  0.58310  1
 O  O4  1  0.63394  0.96265  0.41690  1
 O  O5  1  0.63434  0.18661  0.13840  1
 O  O6  1  0.29459  0.16276  0.78598  1
 O  O7  1  0.86566  0.68661  0.86160  1
 O  O8  1  0.36566  0.81339  0.86160  1
 O  O9  1  0.13434  0.31339  0.13840  1
 O  O10  1  0.65933  0.66090  0.38447  1
 O  O11  1  0.53680  0.70294  0.60659  1
 O  O12  1  0.03680  0.79706  0.60659  1
 O  O13  1  0.46320  0.29706  0.39341  1
 O  O14  1  0.26779  0.50472  0.80142  1
 O  O15  1  0.76779  0.99528  0.80142  1
 O  O16  1  0.84067  0.16090  0.61553  1
 O  O17  1  0.79459  0.33724  0.78598  1
 O  O18  1  0.70541  0.83724  0.21402  1
 O  O19  1  0.20541  0.66276  0.21402  1
 O  O20  1  0.36606  0.03735  0.58310  1
 O  O21  1  0.34067  0.33910  0.61553  1
 O  O22  1  0.15933  0.83910  0.38447  1
 O  O23  1  0.23221  0.00472  0.19858  1
 O  O24  1  0.73221  0.49528  0.19858  1
 Ti  Ti1  1  0.43504  0.84353  0.28409  1
 Ti  Ti2  1  0.06496  0.34353  0.71591  1
 Ti  Ti3  1  0.56496  0.15647  0.71591  1
 Ti  Ti4  1  0.93504  0.65647  0.28409  1
 Zn  Zn1  1  0.90383  0.04848  0.23682  1
 Zn  Zn2  1  0.59617  0.54848  0.76318  1
 Zn  Zn3  1  0.09617  0.95152  0.76318  1
 Zn  Zn4  1  0.40383  0.45152  0.23682  1
