CIF file written using JARVIS-Tools package.
data_Li6CrO6
_symmetry_space_group_name_H-M  'Cc'
_cell_length_a       5.56658
_cell_length_b       5.59207
_cell_length_c       10.6313
_cell_angle_alpha    90.5763
_cell_angle_beta     90.0005
_cell_angle_gamma    119.849

_symmetry_Int_Tables_number  9
_chemical_formula_structural  Li6CrO6
_chemical_formula_sum  Li2Cr2O2
_cell_volume  287.01672259682965
_cell_formula_units_Z  2
loop_
  _symmetry_equiv_pos_site_id
 _symmetry_equiv_pos_as_xyz
 1  'x, y, z'
loop_
 _atom_site_type_symbol
 _atom_site_label
 _atom_site_symmetry_multiplicity
 _atom_site_fract_x
 _atom_site_fract_y
 _atom_site_fract_z
 _atom_site_fract_occupancy
 Cr  Cr1  1  -0.00268  -0.00305  0.00506  1
 Cr  Cr2  1  -0.00036  -0.00304  0.50506  1
 Li  Li1  1  0.39245  0.97421  0.21396  1
 Li  Li2  1  0.99005  0.70334  0.76018  1
 Li  Li3  1  0.58176  0.97421  0.71396  1
 Li  Li4  1  0.64476  0.31873  0.40905  1
 Li  Li5  1  0.32634  0.65368  0.90948  1
 Li  Li6  1  0.39402  0.37697  0.72401  1
 Li  Li7  1  0.32735  0.65368  0.40949  1
 Li  Li8  1  0.99228  0.38073  0.65063  1
 Li  Li9  1  0.71330  0.70334  0.26018  1
 Li  Li10  1  0.98296  0.37697  0.22401  1
 Li  Li11  1  0.38846  0.38073  0.15063  1
 Li  Li12  1  0.67397  0.31872  0.90905  1
 O  O1  1  0.70995  0.99240  0.95858  1
 O  O2  1  0.64812  0.33899  0.23547  1
 O  O3  1  0.29310  0.64138  0.73622  1
 O  O4  1  -0.00604  0.01325  0.66292  1
 O  O5  1  0.01929  0.01325  0.16292  1
 O  O6  1  0.71698  0.71403  0.45325  1
 O  O7  1  0.34829  0.64138  0.23623  1
 O  O8  1  0.99675  0.28314  0.45858  1
 O  O9  1  0.28639  0.28315  0.95858  1
 O  O10  1  -0.00295  0.71402  0.95325  1
 O  O11  1  0.69089  0.33899  0.73547  1
 O  O12  1  0.28246  0.99241  0.45858  1
