CIF file written using JARVIS-Tools package.
data_Li3Ni3OF7
_symmetry_space_group_name_H-M  'R3m'
_cell_length_a       5.91596
_cell_length_b       5.91596
_cell_length_c       5.91596
_cell_angle_alpha    60.5186
_cell_angle_beta     60.5186
_cell_angle_gamma    60.5186

_symmetry_Int_Tables_number  160
_chemical_formula_structural  Li3Ni3OF7
_chemical_formula_sum  Li3Ni3OF7
_cell_volume  148.1217626669389
_cell_formula_units_Z  1
loop_
  _symmetry_equiv_pos_site_id
 _symmetry_equiv_pos_as_xyz
 1  'x, y, z'
loop_
 _atom_site_type_symbol
 _atom_site_label
 _atom_site_symmetry_multiplicity
 _atom_site_fract_x
 _atom_site_fract_y
 _atom_site_fract_z
 _atom_site_fract_occupancy
 F  F1  1  0.85910  0.38310  0.38310  1
 F  F2  1  0.38310  0.85910  0.38310  1
 F  F3  1  0.38310  0.38310  0.85910  1
 F  F4  1  0.86758  0.86758  0.39420  1
 F  F5  1  0.86758  0.39420  0.86758  1
 F  F6  1  0.39420  0.86758  0.86758  1
 F  F7  1  0.86713  0.86713  0.86713  1
 Li  Li1  1  -0.00041  -0.00041  -0.00041  1
 Li  Li2  1  0.25485  0.25485  0.25485  1
 Li  Li3  1  0.62392  0.62392  0.62392  1
 Ni  Ni1  1  0.61468  0.13377  0.61468  1
 Ni  Ni2  1  0.61468  0.61468  0.13377  1
 Ni  Ni3  1  0.13377  0.61468  0.61468  1
 O  O1  1  0.38673  0.38673  0.38673  1
