CIF file written using JARVIS-Tools package.
data_Li2CrCoO4
_symmetry_space_group_name_H-M  'P2/m'
_cell_length_a       4.93925
_cell_length_b       2.89377
_cell_length_c       5.00634
_cell_angle_alpha    90
_cell_angle_beta     109.199
_cell_angle_gamma    90

_symmetry_Int_Tables_number  10
_chemical_formula_structural  Li2CrCoO4
_chemical_formula_sum  Li2CrCoO4
_cell_volume  67.57624387371538
_cell_formula_units_Z  1
loop_
  _symmetry_equiv_pos_site_id
 _symmetry_equiv_pos_as_xyz
 1  'x, y, z'
loop_
 _atom_site_type_symbol
 _atom_site_label
 _atom_site_symmetry_multiplicity
 _atom_site_fract_x
 _atom_site_fract_y
 _atom_site_fract_z
 _atom_site_fract_occupancy
 Co  Co1  1  -0.00000  0.50000  0.50000  1
 Cr  Cr1  1  0.50000  0.00000  0.50000  1
 Li  Li1  1  0.50000  0.50000  -0.00000  1
 Li  Li2  1  0.00000  0.00000  0.00000  1
 O  O1  1  0.23456  0.00000  0.72293  1
 O  O2  1  0.74442  0.50000  0.72724  1
 O  O3  1  0.25558  0.50000  0.27276  1
 O  O4  1  0.76544  0.00000  0.27707  1
