CIF file written using JARVIS-Tools package.
data_Al2SiO5
_symmetry_space_group_name_H-M  'Pnma'
_cell_length_a       5.8299
_cell_length_b       7.55807
_cell_length_c       7.73162
_cell_angle_alpha    90
_cell_angle_beta     90
_cell_angle_gamma    90

_symmetry_Int_Tables_number  62
_chemical_formula_structural  Al2SiO5
_chemical_formula_sum  Al8Si4O20
_cell_volume  340.6767555844167
_cell_formula_units_Z  4
loop_
  _symmetry_equiv_pos_site_id
 _symmetry_equiv_pos_as_xyz
 1  'x, y, z'
loop_
 _atom_site_type_symbol
 _atom_site_label
 _atom_site_symmetry_multiplicity
 _atom_site_fract_x
 _atom_site_fract_y
 _atom_site_fract_z
 _atom_site_fract_occupancy
 Al  Al1  1  0.00000  0.00000  0.00000  1
 Al  Al2  1  0.50000  0.00000  0.00000  1
 Al  Al3  1  0.00000  0.50000  0.50000  1
 Al  Al4  1  0.50000  0.50000  0.50000  1
 Al  Al5  1  0.25000  0.35746  0.84429  1
 Al  Al6  1  0.75000  0.64254  0.15571  1
 Al  Al7  1  0.75000  0.85746  0.65571  1
 Al  Al8  1  0.25000  0.14254  0.34429  1
 O  O1  1  0.48587  0.87388  0.77806  1
 O  O2  1  0.51413  0.12612  0.22194  1
 O  O3  1  0.01413  0.87388  0.77806  1
 O  O4  1  0.48587  0.62612  0.27806  1
 O  O5  1  0.51413  0.37388  0.72194  1
 O  O6  1  0.75000  0.85723  0.06714  1
 O  O7  1  0.98587  0.12612  0.22194  1
 O  O8  1  0.25000  0.97680  0.49802  1
 O  O9  1  0.01413  0.62612  0.27806  1
 O  O10  1  0.98587  0.37388  0.72194  1
 O  O11  1  0.75000  0.47680  0.00198  1
 O  O12  1  0.75000  0.13919  0.90850  1
 O  O13  1  0.25000  0.63919  0.59150  1
 O  O14  1  0.25000  0.86081  0.09150  1
 O  O15  1  0.75000  0.02320  0.50198  1
 O  O16  1  0.25000  0.35723  0.43286  1
 O  O17  1  0.75000  0.64277  0.56714  1
 O  O18  1  0.25000  0.52320  0.99802  1
 O  O19  1  0.75000  0.36081  0.40850  1
 O  O20  1  0.25000  0.14277  0.93286  1
 Si  Si1  1  0.25000  0.84629  0.66018  1
 Si  Si2  1  0.75000  0.15371  0.33982  1
 Si  Si3  1  0.25000  0.65371  0.16018  1
 Si  Si4  1  0.75000  0.34629  0.83982  1
