CIF file written using JARVIS-Tools package.
data_LiFeSiO4
_symmetry_space_group_name_H-M  'Pna2_1'
_cell_length_a       5.03741
_cell_length_b       6.35763
_cell_length_c       10.7437
_cell_angle_alpha    90
_cell_angle_beta     90.0039
_cell_angle_gamma    90

_symmetry_Int_Tables_number  33
_chemical_formula_structural  LiFeSiO4
_chemical_formula_sum  Li4Fe4Si4O6
_cell_volume  344.0764741037675
_cell_formula_units_Z  4
loop_
  _symmetry_equiv_pos_site_id
 _symmetry_equiv_pos_as_xyz
 1  'x, y, z'
loop_
 _atom_site_type_symbol
 _atom_site_label
 _atom_site_symmetry_multiplicity
 _atom_site_fract_x
 _atom_site_fract_y
 _atom_site_fract_z
 _atom_site_fract_occupancy
 Fe  Fe1  1  0.26084  0.52907  0.08425  1
 Fe  Fe2  1  0.26084  0.47093  0.58425  1
 Fe  Fe3  1  0.76086  0.97092  0.91520  1
 Fe  Fe4  1  0.76086  0.02908  0.41520  1
 Li  Li1  1  0.26019  0.23244  0.83755  1
 Li  Li2  1  0.76019  0.26756  0.16189  1
 Li  Li3  1  0.76019  0.73244  0.66189  1
 Li  Li4  1  0.26019  0.76756  0.33755  1
 O  O1  1  0.19250  0.48111  0.41175  1
 O  O2  1  0.08921  0.74265  0.17438  1
 O  O3  1  0.15021  0.70144  0.68284  1
 O  O4  1  0.62955  0.44308  0.61274  1
 O  O5  1  0.19250  0.51889  0.91175  1
 O  O6  1  0.08921  0.25735  0.67438  1
 O  O7  1  0.65023  0.79857  0.31660  1
 O  O8  1  0.62955  0.55692  0.11274  1
 O  O9  1  0.12956  0.94307  0.88670  1
 O  O10  1  0.65023  0.20143  0.81660  1
 O  O11  1  0.69249  0.01889  0.58770  1
 O  O12  1  0.12956  0.05693  0.38670  1
 O  O13  1  0.58921  0.75734  0.82506  1
 O  O14  1  0.58921  0.24266  0.32506  1
 O  O15  1  0.69249  0.98111  0.08770  1
 O  O16  1  0.15021  0.29856  0.18284  1
 Si  Si1  1  0.26388  0.27123  0.32612  1
 Si  Si2  1  0.26388  0.72877  0.82612  1
 Si  Si3  1  0.76387  0.77123  0.17332  1
 Si  Si4  1  0.76387  0.22877  0.67332  1
