CIF file written using JARVIS-Tools package.
data_LiVF4
_symmetry_space_group_name_H-M  'Pnma'
_cell_length_a       4.49766
_cell_length_b       9.85356
_cell_length_c       7.62043
_cell_angle_alpha    90
_cell_angle_beta     126.167
_cell_angle_gamma    90

_symmetry_Int_Tables_number  62
_chemical_formula_structural  LiVF4
_chemical_formula_sum  Li4V4F6
_cell_volume  272.6427691663723
_cell_formula_units_Z  4
loop_
  _symmetry_equiv_pos_site_id
 _symmetry_equiv_pos_as_xyz
 1  'x, y, z'
loop_
 _atom_site_type_symbol
 _atom_site_label
 _atom_site_symmetry_multiplicity
 _atom_site_fract_x
 _atom_site_fract_y
 _atom_site_fract_z
 _atom_site_fract_occupancy
 F  F1  1  0.48479  0.07424  0.25000  1
 F  F2  1  0.22928  0.84118  0.99343  1
 F  F3  1  0.74239  0.65883  0.00655  1
 F  F4  1  0.96254  0.08426  0.75000  1
 F  F5  1  0.25761  0.34117  0.99345  1
 F  F6  1  0.48479  0.42576  0.75000  1
 F  F7  1  0.51521  0.92576  0.75000  1
 F  F8  1  0.03746  0.58426  0.75000  1
 F  F9  1  0.74239  0.84117  0.50655  1
 F  F10  1  0.25761  0.15883  0.49345  1
 F  F11  1  0.22928  0.65882  0.49343  1
 F  F12  1  0.77072  0.15882  0.00657  1
 F  F13  1  0.51521  0.57424  0.25000  1
 F  F14  1  0.96254  0.41574  0.25000  1
 F  F15  1  0.03746  0.91574  0.25000  1
 F  F16  1  0.77072  0.34118  0.50657  1
 Li  Li1  1  0.22952  0.72471  0.24999  1
 Li  Li2  1  0.77048  0.22471  0.25001  1
 Li  Li3  1  0.22952  0.77529  0.74999  1
 Li  Li4  1  0.77048  0.27529  0.75001  1
 V  V1  1  0.50000  0.00000  0.50000  1
 V  V2  1  -0.00000  0.50000  0.50000  1
 V  V3  1  0.00000  0.00000  0.00000  1
 V  V4  1  0.50000  0.50000  -0.00000  1
