CIF file written using JARVIS-Tools package.
data_Li4Cr3FeO8
_symmetry_space_group_name_H-M  'P2/m'
_cell_length_a       5.02341
_cell_length_b       5.80041
_cell_length_c       5.04077
_cell_angle_alpha    90
_cell_angle_beta     109.413
_cell_angle_gamma    90

_symmetry_Int_Tables_number  10
_chemical_formula_structural  Li4Cr3FeO8
_chemical_formula_sum  Li4Cr3FeO8
_cell_volume  138.52625872813027
_cell_formula_units_Z  1
loop_
  _symmetry_equiv_pos_site_id
 _symmetry_equiv_pos_as_xyz
 1  'x, y, z'
loop_
 _atom_site_type_symbol
 _atom_site_label
 _atom_site_symmetry_multiplicity
 _atom_site_fract_x
 _atom_site_fract_y
 _atom_site_fract_z
 _atom_site_fract_occupancy
 Cr  Cr1  1  -0.00000  0.75278  0.50000  1
 Cr  Cr2  1  -0.00000  0.24722  0.50000  1
 Cr  Cr3  1  0.50000  0.50000  0.50000  1
 Fe  Fe1  1  0.50000  0.00000  0.50000  1
 Li  Li1  1  0.00000  0.00000  0.00000  1
 Li  Li2  1  0.00000  0.50000  0.00000  1
 Li  Li3  1  0.50000  0.75451  0.00000  1
 Li  Li4  1  0.50000  0.24549  0.00000  1
 O  O1  1  0.75504  0.00000  0.27282  1
 O  O2  1  0.75827  0.50000  0.27291  1
 O  O3  1  0.74072  0.75256  0.72622  1
 O  O4  1  0.25928  0.75256  0.27378  1
 O  O5  1  0.74072  0.24744  0.72622  1
 O  O6  1  0.24496  0.00000  0.72718  1
 O  O7  1  0.25928  0.24744  0.27378  1
 O  O8  1  0.24173  0.50000  0.72709  1
