CIF file written using JARVIS-Tools package.
data_Li5SbS4
_symmetry_space_group_name_H-M  'Immm'
_cell_length_a       3.89335
_cell_length_b       7.78414
_cell_length_c       7.14904
_cell_angle_alpha    62.6643
_cell_angle_beta     90
_cell_angle_gamma    75.5176

_symmetry_Int_Tables_number  71
_chemical_formula_structural  Li5SbS4
_chemical_formula_sum  Li5SbS4
_cell_volume  184.68299607942245
_cell_formula_units_Z  1
loop_
  _symmetry_equiv_pos_site_id
 _symmetry_equiv_pos_as_xyz
 1  'x, y, z'
loop_
 _atom_site_type_symbol
 _atom_site_label
 _atom_site_symmetry_multiplicity
 _atom_site_fract_x
 _atom_site_fract_y
 _atom_site_fract_z
 _atom_site_fract_occupancy
 Li  Li1  1  0.17888  0.64224  0.96989  1
 Li  Li2  1  0.17888  0.64225  0.38779  1
 Li  Li3  1  0.82112  0.35775  0.61221  1
 Li  Li4  1  0.82112  0.35776  0.03011  1
 Li  Li5  1  0.50000  0.00000  0.50000  1
 S  S1  1  -0.00000  0.00000  0.27158  1
 S  S2  1  0.71384  0.57232  0.21384  1
 S  S3  1  0.28616  0.42768  0.78616  1
 S  S4  1  0.00000  -0.00000  0.72842  1
 Sb  Sb1  1  0.50000  0.00000  0.00000  1
