CIF file written using JARVIS-Tools package.
data_ZnSiN2
_symmetry_space_group_name_H-M  'Pna2_1'
_cell_length_a       5.0745
_cell_length_b       5.28363
_cell_length_c       6.30519
_cell_angle_alpha    90
_cell_angle_beta     90
_cell_angle_gamma    90

_symmetry_Int_Tables_number  33
_chemical_formula_structural  ZnSiN2
_chemical_formula_sum  Zn4Si4N8
_cell_volume  169.05317587422712
_cell_formula_units_Z  4
loop_
  _symmetry_equiv_pos_site_id
 _symmetry_equiv_pos_as_xyz
 1  'x, y, z'
loop_
 _atom_site_type_symbol
 _atom_site_label
 _atom_site_symmetry_multiplicity
 _atom_site_fract_x
 _atom_site_fract_y
 _atom_site_fract_z
 _atom_site_fract_occupancy
 N  N1  1  0.14858  0.55550  0.40143  1
 N  N2  1  0.64858  0.44450  0.59857  1
 N  N3  1  0.64858  0.94450  0.90143  1
 N  N4  1  0.14858  0.05550  0.09857  1
 N  N5  1  0.08927  0.60792  0.84794  1
 N  N6  1  0.58927  0.39208  0.15206  1
 N  N7  1  0.58927  0.89208  0.34794  1
 N  N8  1  0.08927  0.10792  0.65206  1
 Si  Si1  1  0.49392  0.57270  0.37491  1
 Si  Si2  1  0.99392  0.42730  0.62509  1
 Si  Si3  1  0.99392  0.92730  0.87491  1
 Si  Si4  1  0.49392  0.07270  0.12509  1
 Zn  Zn1  1  0.99423  0.91633  0.37530  1
 Zn  Zn2  1  0.49423  0.08367  0.62470  1
 Zn  Zn3  1  0.49423  0.58367  0.87530  1
 Zn  Zn4  1  0.99423  0.41633  0.12470  1
