CIF file written using JARVIS-Tools package.
data_BiS2
_symmetry_space_group_name_H-M  'C2/m'
_cell_length_a       4.05446
_cell_length_b       8.24869
_cell_length_c       9.34002
_cell_angle_alpha    81.2142
_cell_angle_beta     77.4643
_cell_angle_gamma    75.773

_symmetry_Int_Tables_number  12
_chemical_formula_structural  BiS2
_chemical_formula_sum  Bi4S8
_cell_volume  293.9335938361771
_cell_formula_units_Z  4
loop_
  _symmetry_equiv_pos_site_id
 _symmetry_equiv_pos_as_xyz
 1  'x, y, z'
loop_
 _atom_site_type_symbol
 _atom_site_label
 _atom_site_symmetry_multiplicity
 _atom_site_fract_x
 _atom_site_fract_y
 _atom_site_fract_z
 _atom_site_fract_occupancy
 Bi  Bi1  1  0.29468  0.30173  0.10890  1
 Bi  Bi2  1  0.39677  0.82617  0.38029  1
 Bi  Bi3  1  0.60323  0.17383  0.61971  1
 Bi  Bi4  1  0.70532  0.69826  0.89110  1
 S  S1  1  0.34547  0.46974  0.83932  1
 S  S2  1  0.78691  0.07835  0.34782  1
 S  S3  1  0.92341  0.61969  0.53349  1
 S  S4  1  0.21309  0.92164  0.65218  1
 S  S5  1  0.03628  0.87641  0.05102  1
 S  S6  1  0.07659  0.38031  0.46651  1
 S  S7  1  0.65453  0.53026  0.16068  1
 S  S8  1  0.96372  0.12359  0.94898  1
