CIF file written using JARVIS-Tools package.
data_Li6MnFeP2C2O14
_symmetry_space_group_name_H-M  'Pm'
_cell_length_a       4.95629
_cell_length_b       6.37977
_cell_length_c       8.58243
_cell_angle_alpha    90
_cell_angle_beta     96.9651
_cell_angle_gamma    90

_symmetry_Int_Tables_number  6
_chemical_formula_structural  Li6MnFeP2C2O14
_chemical_formula_sum  Li6MnFeP2C2O4
_cell_volume  269.3734942814497
_cell_formula_units_Z  1
loop_
  _symmetry_equiv_pos_site_id
 _symmetry_equiv_pos_as_xyz
 1  'x, y, z'
loop_
 _atom_site_type_symbol
 _atom_site_label
 _atom_site_symmetry_multiplicity
 _atom_site_fract_x
 _atom_site_fract_y
 _atom_site_fract_z
 _atom_site_fract_occupancy
 C  C1  1  0.66502  0.00000  0.96039  1
 C  C2  1  0.33734  0.50000  0.03681  1
 Fe  Fe1  1  0.78616  0.00000  0.66572  1
 Li  Li1  1  0.80394  0.50000  0.89717  1
 Li  Li2  1  0.27085  0.26229  0.73190  1
 Li  Li3  1  0.27085  0.73771  0.73190  1
 Li  Li4  1  0.72994  0.76659  0.26796  1
 Li  Li5  1  0.72994  0.23341  0.26796  1
 Li  Li6  1  0.19525  0.00000  0.10480  1
 Mn  Mn1  1  0.22361  0.50000  0.34146  1
 O  O1  1  0.84802  0.68926  0.69681  1
 O  O2  1  0.84802  0.31074  0.69681  1
 O  O3  1  0.58948  0.00000  0.09983  1
 O  O4  1  0.41083  0.50000  0.89660  1
 O  O5  1  0.91693  0.00000  0.93816  1
 O  O6  1  0.48395  0.00000  0.83573  1
 O  O7  1  0.41825  0.50000  0.57838  1
 O  O8  1  0.52158  0.50000  0.15983  1
 O  O9  1  0.82454  0.50000  0.42932  1
 O  O10  1  0.14945  0.18750  0.30253  1
 O  O11  1  0.14945  0.81250  0.30253  1
 O  O12  1  0.16481  0.00000  0.57016  1
 O  O13  1  0.57914  0.00000  0.42660  1
 O  O14  1  0.08613  0.50000  0.05935  1
 P  P1  1  0.73507  0.50000  0.59395  1
 P  P2  1  0.26147  0.00000  0.40733  1
