CIF file written using JARVIS-Tools package.
data_Li2Mn3NiO8
_symmetry_space_group_name_H-M  'P6_3mc'
_cell_length_a       5.69853
_cell_length_b       5.69853
_cell_length_c       9.4327
_cell_angle_alpha    90
_cell_angle_beta     90
_cell_angle_gamma    120

_symmetry_Int_Tables_number  186
_chemical_formula_structural  Li2Mn3NiO8
_chemical_formula_sum  Li4Mn6Ni2O6
_cell_volume  265.2723807718894
_cell_formula_units_Z  2
loop_
  _symmetry_equiv_pos_site_id
 _symmetry_equiv_pos_as_xyz
 1  'x, y, z'
loop_
 _atom_site_type_symbol
 _atom_site_label
 _atom_site_symmetry_multiplicity
 _atom_site_fract_x
 _atom_site_fract_y
 _atom_site_fract_z
 _atom_site_fract_occupancy
 Li  Li1  1  0.33333  0.66667  0.10546  1
 Li  Li2  1  0.00000  0.00000  0.00181  1
 Li  Li3  1  0.00000  0.00000  0.50181  1
 Li  Li4  1  0.66667  0.33333  0.60546  1
 Mn  Mn1  1  0.16864  0.33728  0.78573  1
 Mn  Mn2  1  0.16864  0.83136  0.78573  1
 Mn  Mn3  1  0.66272  0.83136  0.78573  1
 Mn  Mn4  1  0.33728  0.16864  0.28573  1
 Mn  Mn5  1  0.83136  0.16864  0.28573  1
 Mn  Mn6  1  0.83136  0.66272  0.28573  1
 Ni  Ni1  1  0.33333  0.66667  0.50989  1
 Ni  Ni2  1  0.66667  0.33333  0.00989  1
 O  O1  1  0.15942  0.84058  0.39602  1
 O  O2  1  0.15942  0.31883  0.39602  1
 O  O3  1  0.96562  0.48281  0.16807  1
 O  O4  1  0.33333  0.66667  0.89320  1
 O  O5  1  0.00000  0.00000  0.68625  1
 O  O6  1  0.00000  0.00000  0.18625  1
 O  O7  1  0.03438  0.51719  0.66807  1
 O  O8  1  0.84058  0.15942  0.89602  1
 O  O9  1  0.68117  0.84058  0.39602  1
 O  O10  1  0.51719  0.03438  0.16807  1
 O  O11  1  0.51719  0.48281  0.16807  1
 O  O12  1  0.66667  0.33333  0.39320  1
 O  O13  1  0.48281  0.51719  0.66807  1
 O  O14  1  0.31883  0.15942  0.89602  1
 O  O15  1  0.48281  0.96562  0.66807  1
 O  O16  1  0.84058  0.68117  0.89602  1
