CIF file written using JARVIS-Tools package.
data_Li6MnCrP2C2O14
_symmetry_space_group_name_H-M  'Pm'
_cell_length_a       4.93528
_cell_length_b       6.37004
_cell_length_c       8.68637
_cell_angle_alpha    90
_cell_angle_beta     96.002
_cell_angle_gamma    90

_symmetry_Int_Tables_number  6
_chemical_formula_structural  Li6MnCrP2C2O14
_chemical_formula_sum  Li6MnCrP2C2O4
_cell_volume  271.58481165913827
_cell_formula_units_Z  1
loop_
  _symmetry_equiv_pos_site_id
 _symmetry_equiv_pos_as_xyz
 1  'x, y, z'
loop_
 _atom_site_type_symbol
 _atom_site_label
 _atom_site_symmetry_multiplicity
 _atom_site_fract_x
 _atom_site_fract_y
 _atom_site_fract_z
 _atom_site_fract_occupancy
 C  C1  1  0.66840  0.00000  0.96057  1
 C  C2  1  0.32310  0.50000  0.04056  1
 Cr  Cr1  1  0.19544  0.50000  0.33425  1
 Li  Li1  1  0.80409  0.50000  0.88738  1
 Li  Li2  1  0.27742  0.26814  0.73522  1
 Li  Li3  1  0.27742  0.73186  0.73522  1
 Li  Li4  1  0.71890  0.76740  0.26444  1
 Li  Li5  1  0.71890  0.23260  0.26444  1
 Li  Li6  1  0.19396  0.00000  0.10465  1
 Mn  Mn1  1  0.77732  0.00000  0.65393  1
 O  O1  1  0.86551  0.68850  0.69482  1
 O  O2  1  0.86551  0.31150  0.69482  1
 O  O3  1  0.58657  0.00000  0.09850  1
 O  O4  1  0.42413  0.50000  0.90904  1
 O  O5  1  0.92173  0.00000  0.94090  1
 O  O6  1  0.48923  0.00000  0.83794  1
 O  O7  1  0.43146  0.50000  0.58842  1
 O  O8  1  0.48516  0.50000  0.17204  1
 O  O9  1  0.83245  0.50000  0.42992  1
 O  O10  1  0.14923  0.18826  0.30600  1
 O  O11  1  0.14923  0.81174  0.30600  1
 O  O12  1  0.18307  0.00000  0.57166  1
 O  O13  1  0.58381  0.00000  0.41724  1
 O  O14  1  0.06651  0.50000  0.04960  1
 P  P1  1  0.74571  0.50000  0.59554  1
 P  P2  1  0.26576  0.00000  0.40688  1
