CIF file written using JARVIS-Tools package.
data_Li2TiNi2O5
_symmetry_space_group_name_H-M  'C2'
_cell_length_a       5.12048
_cell_length_b       7.67054
_cell_length_c       5.0949
_cell_angle_alpha    70.604
_cell_angle_beta     110.569
_cell_angle_gamma    96.6999

_symmetry_Int_Tables_number  5
_chemical_formula_structural  Li2TiNi2O5
_chemical_formula_sum  Li4Ti2Ni4O0
_cell_volume  176.7214967312381
_cell_formula_units_Z  2
loop_
  _symmetry_equiv_pos_site_id
 _symmetry_equiv_pos_as_xyz
 1  'x, y, z'
loop_
 _atom_site_type_symbol
 _atom_site_label
 _atom_site_symmetry_multiplicity
 _atom_site_fract_x
 _atom_site_fract_y
 _atom_site_fract_z
 _atom_site_fract_occupancy
 Li  Li1  1  0.50002  0.60342  0.69828  1
 Li  Li2  1  -0.00000  0.40419  0.79790  1
 Li  Li3  1  0.50000  0.79459  0.10270  1
 Li  Li4  1  0.00000  0.19733  0.40134  1
 Ni  Ni1  1  -0.00000  0.79599  0.60200  1
 Ni  Ni2  1  -0.00000  0.00154  0.99924  1
 Ni  Ni3  1  0.50000  0.40474  0.29762  1
 Ni  Ni4  1  0.50000  0.99107  0.50447  1
 O  O1  1  0.74222  0.01106  0.23451  1
 O  O2  1  0.74676  0.40198  0.05171  1
 O  O3  1  0.76313  0.79485  0.85379  1
 O  O4  1  0.23382  0.60046  0.96559  1
 O  O5  1  0.73440  0.19896  0.65995  1
 O  O6  1  0.76617  0.60046  0.43394  1
 O  O7  1  0.23687  0.79485  0.35136  1
 O  O8  1  0.25778  0.01106  0.75443  1
 O  O9  1  0.25324  0.40198  0.54631  1
 O  O10  1  0.26560  0.19896  0.14108  1
 Ti  Ti1  1  0.00001  0.59606  0.20198  1
 Ti  Ti2  1  0.50001  0.19645  0.90178  1
