CIF file written using JARVIS-Tools package.
data_Li2NiOF2
_symmetry_space_group_name_H-M  'P4/nmm'
_cell_length_a       2.87858
_cell_length_b       2.87858
_cell_length_c       12.5396
_cell_angle_alpha    90
_cell_angle_beta     90
_cell_angle_gamma    90

_symmetry_Int_Tables_number  129
_chemical_formula_structural  Li2NiOF2
_chemical_formula_sum  Li4Ni2O2F4
_cell_volume  103.90560375876865
_cell_formula_units_Z  2
loop_
  _symmetry_equiv_pos_site_id
 _symmetry_equiv_pos_as_xyz
 1  'x, y, z'
loop_
 _atom_site_type_symbol
 _atom_site_label
 _atom_site_symmetry_multiplicity
 _atom_site_fract_x
 _atom_site_fract_y
 _atom_site_fract_z
 _atom_site_fract_occupancy
 F  F1  1  0.50000  0.50000  0.34618  1
 F  F2  1  0.00000  0.00000  0.50357  1
 F  F3  1  0.50000  0.50000  0.66310  1
 F  F4  1  0.00000  0.00000  0.82049  1
 Li  Li1  1  0.00000  0.00000  0.34187  1
 Li  Li2  1  0.50000  0.50000  0.50459  1
 Li  Li3  1  0.00000  0.00000  0.66208  1
 Li  Li4  1  0.50000  0.50000  0.82480  1
 Ni  Ni1  1  0.00000  0.00000  -0.00012  1
 Ni  Ni2  1  0.50000  0.50000  0.16678  1
 O  O1  1  0.50000  0.50000  0.99737  1
 O  O2  1  0.00000  0.00000  0.16930  1
