CIF file written using JARVIS-Tools package.
data_Li2MnSi3O8
_symmetry_space_group_name_H-M  'P1'
_cell_length_a       5.00842
_cell_length_b       6.25435
_cell_length_c       6.1464
_cell_angle_alpha    75.7766
_cell_angle_beta     73.333
_cell_angle_gamma    74.9147

_symmetry_Int_Tables_number  1
_chemical_formula_structural  Li2MnSi3O8
_chemical_formula_sum  Li2MnSi3O8
_cell_volume  175.01581333491262
_cell_formula_units_Z  1
loop_
  _symmetry_equiv_pos_site_id
 _symmetry_equiv_pos_as_xyz
 1  'x, y, z'
loop_
 _atom_site_type_symbol
 _atom_site_label
 _atom_site_symmetry_multiplicity
 _atom_site_fract_x
 _atom_site_fract_y
 _atom_site_fract_z
 _atom_site_fract_occupancy
 Li  Li1  1  0.74385  0.85727  0.35019  1
 Li  Li2  1  0.22926  0.12431  0.67543  1
 Mn  Mn1  1  0.37396  0.62247  0.71725  1
 O  O1  1  0.02647  0.86480  0.84221  1
 O  O2  1  0.92765  0.16749  0.24071  1
 O  O3  1  0.58066  0.89918  0.65855  1
 O  O4  1  0.66029  0.54431  0.42253  1
 O  O5  1  0.28387  0.31934  0.85691  1
 O  O6  1  0.68484  0.55277  0.98106  1
 O  O7  1  0.49047  0.94169  0.11176  1
 O  O8  1  0.36482  0.29557  0.29776  1
 Si  Si1  1  0.70866  0.82620  0.88528  1
 Si  Si2  1  0.65978  0.39640  0.24487  1
 Si  Si3  1  0.26542  0.18679  0.11689  1
