CIF file written using JARVIS-Tools package.
data_Zn2SiO4
_symmetry_space_group_name_H-M  'Imma'
_cell_length_a       5.80141
_cell_length_b       7.76129
_cell_length_c       7.76129
_cell_angle_alpha    66.2512
_cell_angle_beta     68.0535
_cell_angle_gamma    68.0535

_symmetry_Int_Tables_number  74
_chemical_formula_structural  Zn2SiO4
_chemical_formula_sum  Zn8Si4O6
_cell_volume  286.25176859247466
_cell_formula_units_Z  4
loop_
  _symmetry_equiv_pos_site_id
 _symmetry_equiv_pos_as_xyz
 1  'x, y, z'
loop_
 _atom_site_type_symbol
 _atom_site_label
 _atom_site_symmetry_multiplicity
 _atom_site_fract_x
 _atom_site_fract_y
 _atom_site_fract_z
 _atom_site_fract_occupancy
 O  O1  1  0.11364  0.63147  0.61440  1
 O  O2  1  0.75000  0.46400  0.03600  1
 O  O3  1  0.61364  0.11440  0.13147  1
 O  O4  1  0.75000  0.96475  0.53525  1
 O  O5  1  0.25000  0.03525  0.46475  1
 O  O6  1  0.98797  0.75501  0.26906  1
 O  O7  1  0.01203  0.24499  0.73094  1
 O  O8  1  0.25000  0.53600  0.96400  1
 O  O9  1  0.51203  0.23094  0.74499  1
 O  O10  1  0.88636  0.36853  0.38560  1
 O  O11  1  0.64049  0.63147  0.61440  1
 O  O12  1  0.38636  0.88560  0.86853  1
 O  O13  1  0.14049  0.11440  0.13147  1
 O  O14  1  0.85951  0.88560  0.86853  1
 O  O15  1  0.35951  0.36853  0.38560  1
 O  O16  1  0.48797  0.76906  0.25501  1
 Si  Si1  1  0.62066  0.99657  0.76212  1
 Si  Si2  1  0.37934  0.00343  0.23788  1
 Si  Si3  1  0.12066  0.26212  0.49657  1
 Si  Si4  1  0.87934  0.73788  0.50343  1
 Zn  Zn1  1  0.12418  0.37582  0.87582  1
 Zn  Zn2  1  0.37582  0.62418  0.12418  1
 Zn  Zn3  1  0.62418  0.37582  0.87582  1
 Zn  Zn4  1  0.87582  0.62418  0.12418  1
 Zn  Zn5  1  0.25000  0.78120  0.71880  1
 Zn  Zn6  1  0.75000  0.21880  0.28120  1
 Zn  Zn7  1  0.00000  0.00000  0.00000  1
 Zn  Zn8  1  0.50000  0.50000  0.50000  1
