CIF file written using JARVIS-Tools package.
data_BeH2
_symmetry_space_group_name_H-M  'Ibam'
_cell_length_a       6.27597
_cell_length_b       6.27597
_cell_length_c       6.27597
_cell_angle_alpha    87.9067
_cell_angle_beta     141.649
_cell_angle_gamma    104.614

_symmetry_Int_Tables_number  72
_chemical_formula_structural  BeH2
_chemical_formula_sum  Be6H2
_cell_volume  142.95944237269208
_cell_formula_units_Z  6
loop_
  _symmetry_equiv_pos_site_id
 _symmetry_equiv_pos_as_xyz
 1  'x, y, z'
loop_
 _atom_site_type_symbol
 _atom_site_label
 _atom_site_symmetry_multiplicity
 _atom_site_fract_x
 _atom_site_fract_y
 _atom_site_fract_z
 _atom_site_fract_occupancy
 Be  Be1  1  0.75000  0.75000  0.00000  1
 Be  Be2  1  0.25000  0.25000  0.00000  1
 Be  Be3  1  0.12461  0.16807  0.29268  1
 Be  Be4  1  0.37539  0.66807  0.04346  1
 Be  Be5  1  0.62461  0.33193  0.95654  1
 Be  Be6  1  0.87539  0.83193  0.70732  1
 H  H1  1  0.57339  0.25993  0.13718  1
 H  H2  1  0.87725  0.56380  0.13718  1
 H  H3  1  0.12275  0.43620  0.86282  1
 H  H4  1  0.37725  0.24007  0.31345  1
 H  H5  1  0.92661  0.06380  0.68655  1
 H  H6  1  0.21990  0.80980  0.02970  1
 H  H7  1  0.28010  0.30980  0.58990  1
 H  H8  1  0.71990  0.69020  0.41010  1
 H  H9  1  0.62275  0.75993  0.68655  1
 H  H10  1  0.07339  0.93620  0.31345  1
 H  H11  1  0.78010  0.19020  0.97030  1
 H  H12  1  0.42661  0.74007  0.86282  1
