CIF file written using JARVIS-Tools package.
data_YBiO3
_symmetry_space_group_name_H-M  'R3c'
_cell_length_a       6.11218
_cell_length_b       6.11218
_cell_length_c       6.11218
_cell_angle_alpha    58.9344
_cell_angle_beta     58.9344
_cell_angle_gamma    58.9344

_symmetry_Int_Tables_number  161
_chemical_formula_structural  YBiO3
_chemical_formula_sum  Y2Bi2O6
_cell_volume  157.53751020093034
_cell_formula_units_Z  2
loop_
  _symmetry_equiv_pos_site_id
 _symmetry_equiv_pos_as_xyz
 1  'x, y, z'
loop_
 _atom_site_type_symbol
 _atom_site_label
 _atom_site_symmetry_multiplicity
 _atom_site_fract_x
 _atom_site_fract_y
 _atom_site_fract_z
 _atom_site_fract_occupancy
 Bi  Bi1  1  0.00684  0.00684  0.00684  1
 Bi  Bi2  1  0.50684  0.50684  0.50684  1
 O  O1  1  0.08297  0.85361  0.41113  1
 O  O2  1  0.58297  0.91113  0.35361  1
 O  O3  1  0.35361  0.58297  0.91113  1
 O  O4  1  0.41113  0.08297  0.85361  1
 O  O5  1  0.85361  0.41113  0.08297  1
 O  O6  1  0.91113  0.35361  0.58297  1
 Y  Y1  1  0.22386  0.22386  0.22386  1
 Y  Y2  1  0.72386  0.72386  0.72386  1
