CIF file written using JARVIS-Tools package.
data_Mn6O7F5
_symmetry_space_group_name_H-M  'P1'
_cell_length_a       5.45169
_cell_length_b       5.50244
_cell_length_c       7.24471
_cell_angle_alpha    73.3307
_cell_angle_beta     72.3224
_cell_angle_gamma    71.7522

_symmetry_Int_Tables_number  1
_chemical_formula_structural  Mn6O7F5
_chemical_formula_sum  Mn6O7F5
_cell_volume  192.18235811084566
_cell_formula_units_Z  1
loop_
  _symmetry_equiv_pos_site_id
 _symmetry_equiv_pos_as_xyz
 1  'x, y, z'
loop_
 _atom_site_type_symbol
 _atom_site_label
 _atom_site_symmetry_multiplicity
 _atom_site_fract_x
 _atom_site_fract_y
 _atom_site_fract_z
 _atom_site_fract_occupancy
 F  F1  1  0.30025  0.74051  0.98930  1
 F  F2  1  0.89330  0.85405  0.31211  1
 F  F3  1  0.36522  0.92457  0.34109  1
 F  F4  1  0.11002  0.10870  0.68516  1
 F  F5  1  0.57538  0.57349  0.64049  1
 Mn  Mn1  1  0.68888  0.68924  0.83892  1
 Mn  Mn2  1  0.98667  0.98586  0.50431  1
 Mn  Mn3  1  0.32904  0.33207  0.16422  1
 Mn  Mn4  1  0.67826  0.61137  0.30879  1
 Mn  Mn5  1  0.33821  0.33818  0.67255  1
 Mn  Mn6  1  0.97707  0.04453  0.00208  1
 O  O1  1  0.68617  0.34057  0.00076  1
 O  O2  1  0.64282  0.03158  0.67131  1
 O  O3  1  0.77098  0.79349  0.02982  1
 O  O4  1  0.22869  0.24850  0.95800  1
 O  O5  1  0.02894  0.64350  0.67330  1
 O  O6  1  0.42934  0.41479  0.37884  1
 O  O7  1  0.97075  0.32499  0.32894  1
