CIF file written using JARVIS-Tools package.
data_Li2SiNiO4
_symmetry_space_group_name_H-M  'P1'
_cell_length_a       5.14505
_cell_length_b       5.39803
_cell_length_c       6.13622
_cell_angle_alpha    92.5449
_cell_angle_beta     89.9106
_cell_angle_gamma    93.3758

_symmetry_Int_Tables_number  1
_chemical_formula_structural  Li2SiNiO4
_chemical_formula_sum  Li4Si2Ni2O8
_cell_volume  169.95854750692507
_cell_formula_units_Z  2
loop_
  _symmetry_equiv_pos_site_id
 _symmetry_equiv_pos_as_xyz
 1  'x, y, z'
loop_
 _atom_site_type_symbol
 _atom_site_label
 _atom_site_symmetry_multiplicity
 _atom_site_fract_x
 _atom_site_fract_y
 _atom_site_fract_z
 _atom_site_fract_occupancy
 Li  Li1  1  0.79958  0.82802  0.24139  1
 Li  Li2  1  0.31217  0.68513  0.48744  1
 Li  Li3  1  0.69100  0.31984  0.00999  1
 Li  Li4  1  0.20011  0.17049  0.75635  1
 Ni  Ni1  1  0.30702  0.66250  0.99067  1
 Ni  Ni2  1  0.68746  0.33218  0.52132  1
 O  O1  1  0.21037  0.87062  0.24175  1
 O  O2  1  0.14131  0.80642  0.74556  1
 O  O3  1  0.69501  0.68454  0.95619  1
 O  O4  1  0.69308  0.70014  0.51370  1
 O  O5  1  0.31279  0.30418  0.04142  1
 O  O6  1  0.30345  0.30983  0.48238  1
 O  O7  1  0.86002  0.20249  0.25931  1
 O  O8  1  0.78400  0.12670  0.75422  1
 Si  Si1  1  0.82059  0.82481  0.74233  1
 Si  Si2  1  0.17925  0.17491  0.25598  1
