CIF file written using JARVIS-Tools package.
data_LiCoCuO4
_symmetry_space_group_name_H-M  'P-1'
_cell_length_a       5.56402
_cell_length_b       5.85453
_cell_length_c       5.99718
_cell_angle_alpha    55.7012
_cell_angle_beta     63.0349
_cell_angle_gamma    62.3649

_symmetry_Int_Tables_number  2
_chemical_formula_structural  LiCoCuO4
_chemical_formula_sum  Li2Co2Cu2O8
_cell_volume  137.96376482508268
_cell_formula_units_Z  2
loop_
  _symmetry_equiv_pos_site_id
 _symmetry_equiv_pos_as_xyz
 1  'x, y, z'
loop_
 _atom_site_type_symbol
 _atom_site_label
 _atom_site_symmetry_multiplicity
 _atom_site_fract_x
 _atom_site_fract_y
 _atom_site_fract_z
 _atom_site_fract_occupancy
 Co  Co1  1  0.00000  -0.00000  0.50000  1
 Co  Co2  1  0.50000  -0.00000  0.50000  1
 Cu  Cu1  1  -0.00000  0.50000  0.50000  1
 Cu  Cu2  1  0.00000  0.00000  0.00000  1
 Li  Li1  1  0.50000  0.50000  -0.00000  1
 Li  Li2  1  0.50000  0.50000  0.50000  1
 O  O1  1  0.26481  0.20924  0.71317  1
 O  O2  1  0.74846  0.77521  0.72225  1
 O  O3  1  0.27471  0.75376  0.70370  1
 O  O4  1  0.18891  0.78813  0.28442  1
 O  O5  1  0.81109  0.21187  0.71558  1
 O  O6  1  0.72529  0.24624  0.29630  1
 O  O7  1  0.25154  0.22479  0.27775  1
 O  O8  1  0.73519  0.79076  0.28683  1
