CIF file written using JARVIS-Tools package.
data_PtO3
_symmetry_space_group_name_H-M  'Pnma'
_cell_length_a       4.88489
_cell_length_b       4.98343
_cell_length_c       7.13285
_cell_angle_alpha    90.0013
_cell_angle_beta     89.9995
_cell_angle_gamma    89.9998

_symmetry_Int_Tables_number  62
_chemical_formula_structural  PtO3
_chemical_formula_sum  Pt4O2
_cell_volume  173.63857917246293
_cell_formula_units_Z  4
loop_
  _symmetry_equiv_pos_site_id
 _symmetry_equiv_pos_as_xyz
 1  'x, y, z'
loop_
 _atom_site_type_symbol
 _atom_site_label
 _atom_site_symmetry_multiplicity
 _atom_site_fract_x
 _atom_site_fract_y
 _atom_site_fract_z
 _atom_site_fract_occupancy
 O  O1  1  0.85395  0.14961  0.57781  1
 O  O2  1  0.14709  0.84988  0.07781  1
 O  O3  1  0.84393  0.44299  0.24869  1
 O  O4  1  0.64711  0.64961  0.57782  1
 O  O5  1  0.34395  0.05650  0.74870  1
 O  O6  1  0.64709  0.64960  0.91957  1
 O  O7  1  0.35395  0.34988  0.41957  1
 O  O8  1  0.15711  0.55649  0.74869  1
 O  O9  1  0.65711  0.94297  0.24869  1
 O  O10  1  0.35394  0.34987  0.07782  1
 O  O11  1  0.14710  0.84988  0.41957  1
 O  O12  1  0.85394  0.14960  0.91957  1
 Pt  Pt1  1  0.00052  0.49975  0.49869  1
 Pt  Pt2  1  0.00052  0.49974  0.99869  1
 Pt  Pt3  1  0.50053  0.99975  0.49869  1
 Pt  Pt4  1  0.50052  -0.00026  0.99869  1
