CIF file written using JARVIS-Tools package.
data_Li3BePCO7
_symmetry_space_group_name_H-M  'P2_1'
_cell_length_a       4.7032
_cell_length_b       6.85568
_cell_length_c       8.06444
_cell_angle_alpha    90
_cell_angle_beta     90.3093
_cell_angle_gamma    90

_symmetry_Int_Tables_number  4
_chemical_formula_structural  Li3BePCO7
_chemical_formula_sum  Li6Be2P2C2O4
_cell_volume  260.0223968969174
_cell_formula_units_Z  2
loop_
  _symmetry_equiv_pos_site_id
 _symmetry_equiv_pos_as_xyz
 1  'x, y, z'
loop_
 _atom_site_type_symbol
 _atom_site_label
 _atom_site_symmetry_multiplicity
 _atom_site_fract_x
 _atom_site_fract_y
 _atom_site_fract_z
 _atom_site_fract_occupancy
 Be  Be1  1  0.04687  0.68930  0.71250  1
 Be  Be2  1  0.95313  0.18930  0.28750  1
 C  C1  1  0.54362  0.71398  0.87017  1
 C  C2  1  0.45638  0.21398  0.12983  1
 Li  Li1  1  0.05748  0.52702  0.03849  1
 Li  Li2  1  0.39632  0.23860  0.80801  1
 Li  Li3  1  0.44165  0.40172  0.44312  1
 Li  Li4  1  0.55835  0.90172  0.55688  1
 Li  Li5  1  0.60368  0.73860  0.19199  1
 Li  Li6  1  0.94252  0.02702  0.96151  1
 O  O1  1  0.39095  0.76182  0.74273  1
 O  O2  1  0.06817  0.45460  0.72987  1
 O  O3  1  0.17953  0.24708  0.12907  1
 O  O4  1  0.82047  0.74708  0.87093  1
 O  O5  1  0.43007  0.63841  0.99865  1
 O  O6  1  0.06272  0.10090  0.74636  1
 O  O7  1  0.07723  0.26650  0.46123  1
 O  O8  1  0.93728  0.60090  0.25364  1
 O  O9  1  0.37459  0.76601  0.37624  1
 O  O10  1  0.60905  0.26182  0.25727  1
 O  O11  1  0.93183  0.95460  0.27013  1
 O  O12  1  0.62541  0.26601  0.62376  1
 O  O13  1  0.92277  0.76650  0.53877  1
 O  O14  1  0.56993  0.13841  0.00135  1
 P  P1  1  0.95034  0.26867  0.63999  1
 P  P2  1  0.04966  0.76867  0.36001  1
