CIF file written using JARVIS-Tools package.
data_Bi7S9Cl3
_symmetry_space_group_name_H-M  'Pm'
_cell_length_a       11.6296
_cell_length_b       15.6323
_cell_length_c       4.0479
_cell_angle_alpha    90
_cell_angle_beta     90
_cell_angle_gamma    134.881

_symmetry_Int_Tables_number  6
_chemical_formula_structural  Bi7S9Cl3
_chemical_formula_sum  Bi7S9Cl3
_cell_volume  521.440861990873
_cell_formula_units_Z  1
loop_
  _symmetry_equiv_pos_site_id
 _symmetry_equiv_pos_as_xyz
 1  'x, y, z'
loop_
 _atom_site_type_symbol
 _atom_site_label
 _atom_site_symmetry_multiplicity
 _atom_site_fract_x
 _atom_site_fract_y
 _atom_site_fract_z
 _atom_site_fract_occupancy
 Bi  Bi1  1  0.08641  0.66137  0.25000  1
 Bi  Bi2  1  0.35430  0.54991  0.25000  1
 Bi  Bi3  1  0.63193  0.91756  0.25000  1
 Bi  Bi4  1  0.30254  0.97322  0.75000  1
 Bi  Bi5  1  0.78220  0.69820  0.75000  1
 Bi  Bi6  1  0.08477  0.11476  0.75000  1
 Bi  Bi7  1  0.81636  0.27928  0.75000  1
 Cl  Cl1  1  0.76156  0.36531  0.25000  1
 Cl  Cl2  1  0.55561  0.07683  0.25000  1
 Cl  Cl3  1  0.16339  0.29443  0.25000  1
 S  S1  1  0.08071  0.83439  0.25000  1
 S  S2  1  0.33463  0.80538  0.75000  1
 S  S3  1  0.34706  0.16363  0.75000  1
 S  S4  1  0.11337  0.48225  0.75000  1
 S  S5  1  0.86149  0.57386  0.75000  1
 S  S6  1  0.54407  0.71981  0.75000  1
 S  S7  1  0.89806  0.94260  0.25000  1
 S  S8  1  0.58792  0.54435  0.25000  1
 S  S9  1  0.79720  0.08189  0.75000  1
