CIF file written using JARVIS-Tools package.
data_Ce2U3O10
_symmetry_space_group_name_H-M  'C2/m'
_cell_length_a       5.43908
_cell_length_b       6.6591
_cell_length_c       6.66002
_cell_angle_alpha    80.1971
_cell_angle_beta     65.9035
_cell_angle_gamma    65.895

_symmetry_Int_Tables_number  12
_chemical_formula_structural  Ce2U3O10
_chemical_formula_sum  Ce2U3O0
_cell_volume  200.9979857398646
_cell_formula_units_Z  1
loop_
  _symmetry_equiv_pos_site_id
 _symmetry_equiv_pos_as_xyz
 1  'x, y, z'
loop_
 _atom_site_type_symbol
 _atom_site_label
 _atom_site_symmetry_multiplicity
 _atom_site_fract_x
 _atom_site_fract_y
 _atom_site_fract_z
 _atom_site_fract_occupancy
 Ce  Ce1  1  0.20310  0.39903  0.19813  1
 Ce  Ce2  1  0.60134  0.20130  0.59938  1
 O  O1  1  0.05920  0.08880  0.29604  1
 O  O2  1  0.55922  0.08877  0.29609  1
 O  O3  1  0.84723  0.70466  0.09428  1
 O  O4  1  0.35714  0.70463  0.09430  1
 O  O5  1  0.24517  0.51154  0.50144  1
 O  O6  1  0.66252  0.30015  0.89877  1
 O  O7  1  0.74521  0.51154  0.50145  1
 O  O8  1  0.14189  0.30018  0.89874  1
 O  O9  1  0.44735  0.89568  0.70324  1
 O  O10  1  0.95727  0.89568  0.70319  1
 U  U1  1  0.00224  -0.00002  0.99890  1
 U  U2  1  0.40222  0.80016  0.39876  1
 U  U3  1  0.80221  0.60035  0.79861  1
