CIF file written using JARVIS-Tools package.
data_Li3SbS4
_symmetry_space_group_name_H-M  'Cc'
_cell_length_a       7.84535
_cell_length_b       7.31233
_cell_length_c       9.95521
_cell_angle_alpha    136.624
_cell_angle_beta     113.206
_cell_angle_gamma    57.5579

_symmetry_Int_Tables_number  9
_chemical_formula_structural  Li3SbS4
_chemical_formula_sum  Li6Sb2S8
_cell_volume  331.008869648223
_cell_formula_units_Z  2
loop_
  _symmetry_equiv_pos_site_id
 _symmetry_equiv_pos_as_xyz
 1  'x, y, z'
loop_
 _atom_site_type_symbol
 _atom_site_label
 _atom_site_symmetry_multiplicity
 _atom_site_fract_x
 _atom_site_fract_y
 _atom_site_fract_z
 _atom_site_fract_occupancy
 Li  Li1  1  0.91920  0.06115  0.63153  1
 Li  Li2  1  0.65118  0.56115  0.13153  1
 Li  Li3  1  0.43740  0.58091  0.68036  1
 Li  Li4  1  0.31303  0.45265  0.88242  1
 Li  Li5  1  0.66205  0.08091  0.18036  1
 Li  Li6  1  0.11673  0.95265  0.38242  1
 S  S1  1  0.01116  0.67103  0.04446  1
 S  S2  1  0.66097  0.86157  0.48407  1
 S  S3  1  0.23235  0.66177  0.45850  1
 S  S4  1  0.43593  0.82855  0.03028  1
 S  S5  1  0.56437  0.16177  0.95850  1
 S  S6  1  0.76580  0.32855  0.53028  1
 S  S7  1  0.36227  0.17103  0.54446  1
 S  S8  1  0.96153  0.36157  0.98407  1
 Sb  Sb1  1  0.83025  0.75565  0.72077  1
 Sb  Sb2  1  0.13487  0.25565  0.22077  1
