CIF file written using JARVIS-Tools package.
data_YbAl2Cu
_symmetry_space_group_name_H-M  'R-3m'
_cell_length_a       5.47092
_cell_length_b       5.47091
_cell_length_c       9.10673
_cell_angle_alpha    89.9965
_cell_angle_beta     107.473
_cell_angle_gamma    59.9927

_symmetry_Int_Tables_number  166
_chemical_formula_structural  YbAl2Cu
_chemical_formula_sum  Yb3Al6Cu3
_cell_volume  221.39215775520728
_cell_formula_units_Z  3
loop_
  _symmetry_equiv_pos_site_id
 _symmetry_equiv_pos_as_xyz
 1  'x, y, z'
loop_
 _atom_site_type_symbol
 _atom_site_label
 _atom_site_symmetry_multiplicity
 _atom_site_fract_x
 _atom_site_fract_y
 _atom_site_fract_z
 _atom_site_fract_occupancy
 Al  Al1  1  0.65824  0.41999  0.23825  1
 Al  Al2  1  0.65827  0.92175  0.23825  1
 Al  Al3  1  0.16000  0.42001  0.23825  1
 Al  Al4  1  0.84000  0.57999  0.76175  1
 Al  Al5  1  0.34173  0.07825  0.76175  1
 Al  Al6  1  0.34176  0.58001  0.76175  1
 Cu  Cu1  1  0.66965  0.66515  0.00450  1
 Cu  Cu2  1  0.00000  0.50000  0.50000  1
 Cu  Cu3  1  0.33035  0.33485  0.99550  1
 Yb  Yb1  1  0.00000  0.00000  0.00000  1
 Yb  Yb2  1  0.28975  0.85511  0.43463  1
 Yb  Yb3  1  0.71025  0.14489  0.56537  1
