CIF file written using JARVIS-Tools package.
data_BH6CN3F4
_symmetry_space_group_name_H-M  'R3m'
_cell_length_a       5.12298
_cell_length_b       5.12297
_cell_length_c       5.12297
_cell_angle_alpha    92.8553
_cell_angle_beta     92.8553
_cell_angle_gamma    92.8553

_symmetry_Int_Tables_number  160
_chemical_formula_structural  BH6CN3F4
_chemical_formula_sum  BH6CN3F4
_cell_volume  133.9334327342455
_cell_formula_units_Z  1
loop_
  _symmetry_equiv_pos_site_id
 _symmetry_equiv_pos_as_xyz
 1  'x, y, z'
loop_
 _atom_site_type_symbol
 _atom_site_label
 _atom_site_symmetry_multiplicity
 _atom_site_fract_x
 _atom_site_fract_y
 _atom_site_fract_z
 _atom_site_fract_occupancy
 B  B1  1  0.42127  0.42127  0.42127  1
 C  C1  1  0.00872  0.00872  0.00872  1
 F  F1  1  0.46599  0.46599  0.15474  1
 F  F2  1  0.46599  0.15474  0.46599  1
 F  F3  1  0.15474  0.46599  0.46599  1
 F  F4  1  0.58728  0.58729  0.58728  1
 H  H1  1  0.74438  0.97941  0.29743  1
 H  H2  1  0.97941  0.74438  0.29743  1
 H  H3  1  0.29743  0.97941  0.74438  1
 H  H4  1  0.97941  0.29743  0.74438  1
 H  H5  1  0.29743  0.74438  0.97941  1
 H  H6  1  0.74438  0.29743  0.97941  1
 N  N1  1  0.90514  0.90514  0.21728  1
 N  N2  1  0.90514  0.21728  0.90514  1
 N  N3  1  0.21728  0.90514  0.90514  1
