CIF file written using JARVIS-Tools package.
data_CuH6N2Cl2
_symmetry_space_group_name_H-M  'Cmcm'
_cell_length_a       5.77119
_cell_length_b       6.59897
_cell_length_c       6.59897
_cell_angle_alpha    70.5437
_cell_angle_beta     90
_cell_angle_gamma    90

_symmetry_Int_Tables_number  63
_chemical_formula_structural  CuH6N2Cl2
_chemical_formula_sum  Cu2H2N4Cl4
_cell_volume  236.96346910153184
_cell_formula_units_Z  2
loop_
  _symmetry_equiv_pos_site_id
 _symmetry_equiv_pos_as_xyz
 1  'x, y, z'
loop_
 _atom_site_type_symbol
 _atom_site_label
 _atom_site_symmetry_multiplicity
 _atom_site_fract_x
 _atom_site_fract_y
 _atom_site_fract_z
 _atom_site_fract_occupancy
 Cl  Cl1  1  0.75000  0.88807  0.88807  1
 Cl  Cl2  1  0.25000  0.11193  0.11193  1
 Cl  Cl3  1  0.25000  0.66490  0.66490  1
 Cl  Cl4  1  0.75000  0.33510  0.33510  1
 Cu  Cu1  1  0.75000  0.11007  0.11007  1
 Cu  Cu2  1  0.25000  0.88992  0.88992  1
 H  H1  1  0.39434  0.15874  0.53692  1
 H  H2  1  0.89434  0.46308  0.84126  1
 H  H3  1  0.75000  0.32335  0.71386  1
 H  H4  1  0.10566  0.53692  0.15874  1
 H  H5  1  0.39434  0.53692  0.15874  1
 H  H6  1  0.89434  0.84126  0.46308  1
 H  H7  1  0.75000  0.71386  0.32335  1
 H  H8  1  0.60566  0.84126  0.46308  1
 H  H9  1  0.25000  0.28614  0.67665  1
 H  H10  1  0.10566  0.15874  0.53692  1
 H  H11  1  0.60566  0.46308  0.84126  1
 H  H12  1  0.25000  0.67665  0.28614  1
 N  N1  1  0.25000  0.63131  0.15088  1
 N  N2  1  0.75000  0.84912  0.36869  1
 N  N3  1  0.25000  0.15088  0.63131  1
 N  N4  1  0.75000  0.36869  0.84912  1
