CIF file written using JARVIS-Tools package.
data_Li2Fe3CoO8
_symmetry_space_group_name_H-M  'R3m'
_cell_length_a       5.77261
_cell_length_b       5.77261
_cell_length_c       5.77261
_cell_angle_alpha    58.0121
_cell_angle_beta     58.012
_cell_angle_gamma    58.012

_symmetry_Int_Tables_number  160
_chemical_formula_structural  Li2Fe3CoO8
_chemical_formula_sum  Li2Fe3CoO8
_cell_volume  129.81737375535573
_cell_formula_units_Z  1
loop_
  _symmetry_equiv_pos_site_id
 _symmetry_equiv_pos_as_xyz
 1  'x, y, z'
loop_
 _atom_site_type_symbol
 _atom_site_label
 _atom_site_symmetry_multiplicity
 _atom_site_fract_x
 _atom_site_fract_y
 _atom_site_fract_z
 _atom_site_fract_occupancy
 Co  Co1  1  0.87981  0.87981  0.87981  1
 Fe  Fe1  1  -0.00039  0.50330  0.50330  1
 Fe  Fe2  1  0.50330  -0.00039  0.50330  1
 Fe  Fe3  1  0.50330  0.50330  -0.00039  1
 Li  Li1  1  0.12502  0.12502  0.12502  1
 Li  Li2  1  0.49477  0.49477  0.49477  1
 O  O1  1  0.26404  0.26404  0.26404  1
 O  O2  1  0.24773  0.24773  0.71519  1
 O  O3  1  0.24773  0.71519  0.24773  1
 O  O4  1  0.71519  0.24773  0.24773  1
 O  O5  1  0.27761  0.74783  0.74783  1
 O  O6  1  0.74783  0.27761  0.74783  1
 O  O7  1  0.74783  0.74783  0.27761  1
 O  O8  1  0.74624  0.74624  0.74624  1
