CIF file written using JARVIS-Tools package.
data_Li3Co3NiO8
_symmetry_space_group_name_H-M  'R-3m'
_cell_length_a       5.71144
_cell_length_b       5.65833
_cell_length_c       5.65833
_cell_angle_alpha    59.9999
_cell_angle_beta     60.3072
_cell_angle_gamma    90

_symmetry_Int_Tables_number  166
_chemical_formula_structural  Li3Co3NiO8
_chemical_formula_sum  Li3Co3NiO8
_cell_volume  129.89970347380475
_cell_formula_units_Z  1
loop_
  _symmetry_equiv_pos_site_id
 _symmetry_equiv_pos_as_xyz
 1  'x, y, z'
loop_
 _atom_site_type_symbol
 _atom_site_label
 _atom_site_symmetry_multiplicity
 _atom_site_fract_x
 _atom_site_fract_y
 _atom_site_fract_z
 _atom_site_fract_occupancy
 Co  Co1  1  0.00000  -0.00000  0.50000  1
 Co  Co2  1  0.00000  0.50000  -0.00000  1
 Co  Co3  1  0.00000  0.50000  0.50000  1
 Li  Li1  1  0.50000  -0.00000  0.00000  1
 Li  Li2  1  0.50000  -0.00000  0.50000  1
 Li  Li3  1  0.50000  0.50000  0.50000  1
 Ni  Ni1  1  0.00000  0.00000  0.00000  1
 O  O1  1  0.21267  0.23570  0.02303  1
 O  O2  1  0.21267  0.23570  0.52860  1
 O  O3  1  0.21267  0.74127  0.02303  1
 O  O4  1  0.21816  0.73939  0.52122  1
 O  O5  1  0.78184  0.26061  0.47877  1
 O  O6  1  0.78733  0.25873  0.97697  1
 O  O7  1  0.78733  0.76430  0.47140  1
 O  O8  1  0.78733  0.76430  0.97697  1
