CIF file written using JARVIS-Tools package.
data_Li4FeSi2O7
_symmetry_space_group_name_H-M  'C2'
_cell_length_a       4.47562
_cell_length_b       5.27039
_cell_length_c       6.79258
_cell_angle_alpha    80.7445
_cell_angle_beta     90
_cell_angle_gamma    64.8746

_symmetry_Int_Tables_number  5
_chemical_formula_structural  Li4FeSi2O7
_chemical_formula_sum  Li4FeSi2O7
_cell_volume  142.75718465084793
_cell_formula_units_Z  1
loop_
  _symmetry_equiv_pos_site_id
 _symmetry_equiv_pos_as_xyz
 1  'x, y, z'
loop_
 _atom_site_type_symbol
 _atom_site_label
 _atom_site_symmetry_multiplicity
 _atom_site_fract_x
 _atom_site_fract_y
 _atom_site_fract_z
 _atom_site_fract_occupancy
 Fe  Fe1  1  0.00099  0.00000  -0.00000  1
 Li  Li1  1  0.16374  0.70227  0.43467  1
 Li  Li2  1  0.72053  0.57458  0.14669  1
 Li  Li3  1  0.29511  0.42542  0.85331  1
 Li  Li4  1  0.86601  0.29773  0.56533  1
 O  O1  1  0.33816  0.89431  0.22713  1
 O  O2  1  0.86402  0.73312  0.88957  1
 O  O3  1  0.49383  0.59136  0.65365  1
 O  O4  1  0.08518  0.40864  0.34635  1
 O  O5  1  0.59714  0.26688  0.11043  1
 O  O6  1  0.23246  0.10569  0.77287  1
 O  O7  1  0.68795  0.00000  0.50000  1
 Si  Si1  1  0.56674  0.84840  0.70953  1
 Si  Si2  1  0.41513  0.15160  0.29047  1
