CIF file written using JARVIS-Tools package.
data_KAgCl3
_symmetry_space_group_name_H-M  'R-3c'
_cell_length_a       7.05567
_cell_length_b       7.05567
_cell_length_c       7.05567
_cell_angle_alpha    61.2969
_cell_angle_beta     61.2969
_cell_angle_gamma    61.2969

_symmetry_Int_Tables_number  167
_chemical_formula_structural  KAgCl3
_chemical_formula_sum  K2Ag2Cl6
_cell_volume  255.61125788154334
_cell_formula_units_Z  2
loop_
  _symmetry_equiv_pos_site_id
 _symmetry_equiv_pos_as_xyz
 1  'x, y, z'
loop_
 _atom_site_type_symbol
 _atom_site_label
 _atom_site_symmetry_multiplicity
 _atom_site_fract_x
 _atom_site_fract_y
 _atom_site_fract_z
 _atom_site_fract_occupancy
 Ag  Ag1  1  0.00566  0.00566  0.00566  1
 Ag  Ag2  1  0.50566  0.50566  0.50566  1
 Cl  Cl1  1  0.25573  0.81047  0.70085  1
 Cl  Cl2  1  0.81047  0.70085  0.25573  1
 Cl  Cl3  1  0.70085  0.25573  0.81047  1
 Cl  Cl4  1  0.20085  0.31047  0.75573  1
 Cl  Cl5  1  0.75573  0.20085  0.31047  1
 Cl  Cl6  1  0.31047  0.75573  0.20085  1
 K  K1  1  0.25579  0.25579  0.25579  1
 K  K2  1  0.75579  0.75579  0.75579  1
