CIF file written using JARVIS-Tools package.
data_Li2FeSiO5
_symmetry_space_group_name_H-M  'P4/nmm'
_cell_length_a       6.36991
_cell_length_b       6.36991
_cell_length_c       4.40399
_cell_angle_alpha    90
_cell_angle_beta     90
_cell_angle_gamma    90

_symmetry_Int_Tables_number  129
_chemical_formula_structural  Li2FeSiO5
_chemical_formula_sum  Li4Fe2Si2O0
_cell_volume  178.695265232258
_cell_formula_units_Z  2
loop_
  _symmetry_equiv_pos_site_id
 _symmetry_equiv_pos_as_xyz
 1  'x, y, z'
loop_
 _atom_site_type_symbol
 _atom_site_label
 _atom_site_symmetry_multiplicity
 _atom_site_fract_x
 _atom_site_fract_y
 _atom_site_fract_z
 _atom_site_fract_occupancy
 Fe  Fe1  1  0.50000  0.00000  0.61803  1
 Fe  Fe2  1  0.00000  0.50000  0.38197  1
 Li  Li1  1  0.25000  0.75000  0.00000  1
 Li  Li2  1  0.75000  0.75000  0.00000  1
 Li  Li3  1  0.75000  0.25000  0.00000  1
 Li  Li4  1  0.25000  0.25000  0.00000  1
 O  O1  1  0.00000  0.50000  0.77645  1
 O  O2  1  0.50000  0.00000  0.22355  1
 O  O3  1  0.79439  0.00000  0.72549  1
 O  O4  1  0.00000  0.79439  0.27451  1
 O  O5  1  0.00000  0.20561  0.27451  1
 O  O6  1  0.70561  0.50000  0.27451  1
 O  O7  1  0.29439  0.50000  0.27451  1
 O  O8  1  0.20561  0.00000  0.72549  1
 O  O9  1  0.50000  0.29439  0.72549  1
 O  O10  1  0.50000  0.70561  0.72549  1
 Si  Si1  1  0.50000  0.50000  0.50000  1
 Si  Si2  1  0.00000  0.00000  0.50000  1
