CIF file written using JARVIS-Tools package.
data_TaPd
_symmetry_space_group_name_H-M  'P4/nmm'
_cell_length_a       3.31563
_cell_length_b       3.31563
_cell_length_c       6.06397
_cell_angle_alpha    90
_cell_angle_beta     90
_cell_angle_gamma    90

_symmetry_Int_Tables_number  129
_chemical_formula_structural  TaPd
_chemical_formula_sum  Ta2Pd2
_cell_volume  66.6638027320081
_cell_formula_units_Z  2
loop_
  _symmetry_equiv_pos_site_id
 _symmetry_equiv_pos_as_xyz
 1  'x, y, z'
loop_
 _atom_site_type_symbol
 _atom_site_label
 _atom_site_symmetry_multiplicity
 _atom_site_fract_x
 _atom_site_fract_y
 _atom_site_fract_z
 _atom_site_fract_occupancy
 Pd  Pd1  1  0.50000  0.00000  0.36866  1
 Pd  Pd2  1  0.00000  0.50000  0.63134  1
 Ta  Ta1  1  0.50000  0.00000  0.85687  1
 Ta  Ta2  1  0.00000  0.50000  0.14313  1
