CIF file written using JARVIS-Tools package.
data_Li3Fe2Ni2O8
_symmetry_space_group_name_H-M  'C2/m'
_cell_length_a       5.58832
_cell_length_b       5.73354
_cell_length_c       5.76833
_cell_angle_alpha    119.8
_cell_angle_beta     118.667
_cell_angle_gamma    89.9988

_symmetry_Int_Tables_number  12
_chemical_formula_structural  Li3Fe2Ni2O8
_chemical_formula_sum  Li3Fe2Ni2O8
_cell_volume  133.64797615179302
_cell_formula_units_Z  1
loop_
  _symmetry_equiv_pos_site_id
 _symmetry_equiv_pos_as_xyz
 1  'x, y, z'
loop_
 _atom_site_type_symbol
 _atom_site_label
 _atom_site_symmetry_multiplicity
 _atom_site_fract_x
 _atom_site_fract_y
 _atom_site_fract_z
 _atom_site_fract_occupancy
 Fe  Fe1  1  0.50000  -0.00000  -0.00000  1
 Fe  Fe2  1  0.00000  0.00000  0.00000  1
 Li  Li1  1  0.00000  0.50000  0.50000  1
 Li  Li2  1  0.50000  0.50000  -0.00000  1
 Li  Li3  1  0.00000  0.00000  0.50000  1
 Ni  Ni1  1  0.50000  0.50000  0.50000  1
 Ni  Ni2  1  0.50000  0.00000  0.50000  1
 O  O1  1  0.70935  0.22604  0.45214  1
 O  O2  1  0.25592  0.77912  0.00669  1
 O  O3  1  0.24370  0.23130  0.46260  1
 O  O4  1  0.74408  0.77242  0.99329  1
 O  O5  1  0.25592  0.22758  0.00671  1
 O  O6  1  0.75630  0.76870  0.53740  1
 O  O7  1  0.74408  0.22088  -0.00669  1
 O  O8  1  0.29065  0.77396  0.54786  1
