CIF file written using JARVIS-Tools package.
data_Li8VO5F
_symmetry_space_group_name_H-M  'P1'
_cell_length_a       5.34131
_cell_length_b       5.36986
_cell_length_c       5.88068
_cell_angle_alpha    90.6191
_cell_angle_beta     116.367
_cell_angle_gamma    118.572

_symmetry_Int_Tables_number  1
_chemical_formula_structural  Li8VO5F
_chemical_formula_sum  Li8VO5F
_cell_volume  127.26740140479582
_cell_formula_units_Z  1
loop_
  _symmetry_equiv_pos_site_id
 _symmetry_equiv_pos_as_xyz
 1  'x, y, z'
loop_
 _atom_site_type_symbol
 _atom_site_label
 _atom_site_symmetry_multiplicity
 _atom_site_fract_x
 _atom_site_fract_y
 _atom_site_fract_z
 _atom_site_fract_occupancy
 F  F1  1  0.50117  0.40315  0.26181  1
 Li  Li1  1  0.24088  0.47816  0.36156  1
 Li  Li2  1  0.12985  0.23461  0.65537  1
 Li  Li3  1  0.40647  0.89275  0.64021  1
 Li  Li4  1  0.71610  0.34383  0.00837  1
 Li  Li5  1  0.31588  0.68683  0.96936  1
 Li  Li6  1  0.58657  0.09306  0.35831  1
 Li  Li7  1  0.88905  0.78353  0.36164  1
 Li  Li8  1  0.75536  0.51833  0.65305  1
 O  O1  1  0.51376  0.60416  0.75895  1
 O  O2  1  0.85335  0.09076  0.23739  1
 O  O3  1  0.15214  0.76317  0.23432  1
 O  O4  1  0.83837  0.22885  0.76113  1
 O  O5  1  0.13325  0.90339  0.75523  1
 V  V1  1  0.96780  0.97543  0.98329  1
