CIF file written using JARVIS-Tools package.
data_Li3Co4CuO8
_symmetry_space_group_name_H-M  'C2/m'
_cell_length_a       5.85463
_cell_length_b       5.85463
_cell_length_c       5.74541
_cell_angle_alpha    88.2202
_cell_angle_beta     59.0403
_cell_angle_gamma    58.2885

_symmetry_Int_Tables_number  12
_chemical_formula_structural  Li3Co4CuO8
_chemical_formula_sum  Li3Co4CuO8
_cell_volume  135.7114369198546
_cell_formula_units_Z  1
loop_
  _symmetry_equiv_pos_site_id
 _symmetry_equiv_pos_as_xyz
 1  'x, y, z'
loop_
 _atom_site_type_symbol
 _atom_site_label
 _atom_site_symmetry_multiplicity
 _atom_site_fract_x
 _atom_site_fract_y
 _atom_site_fract_z
 _atom_site_fract_occupancy
 Co  Co1  1  -0.00000  0.50000  0.50000  1
 Co  Co2  1  0.00000  0.00000  0.00000  1
 Co  Co3  1  0.50000  -0.00000  -0.00000  1
 Co  Co4  1  -0.00000  0.50000  0.00000  1
 Cu  Cu1  1  0.50000  0.50000  -0.00000  1
 Li  Li1  1  0.00000  -0.00000  0.50000  1
 Li  Li2  1  0.50000  -0.00000  0.50000  1
 Li  Li3  1  0.50000  0.50000  0.50000  1
 O  O1  1  0.48118  0.25070  0.76952  1
 O  O2  1  0.00574  0.26954  0.76167  1
 O  O3  1  0.50787  0.76741  0.76167  1
 O  O4  1  0.97723  0.73675  0.75952  1
 O  O5  1  0.02277  0.26325  0.24048  1
 O  O6  1  0.49213  0.23259  0.23833  1
 O  O7  1  -0.00574  0.73046  0.23833  1
 O  O8  1  0.51882  0.74930  0.23048  1
