CIF file written using JARVIS-Tools package.
data_TaCuN2
_symmetry_space_group_name_H-M  'R-3m'
_cell_length_a       3.15612
_cell_length_b       3.15612
_cell_length_c       5.37826
_cell_angle_alpha    72.9375
_cell_angle_beta     72.9375
_cell_angle_gamma    60

_symmetry_Int_Tables_number  166
_chemical_formula_structural  TaCuN2
_chemical_formula_sum  TaCuN2
_cell_volume  43.65176578569184
_cell_formula_units_Z  1
loop_
  _symmetry_equiv_pos_site_id
 _symmetry_equiv_pos_as_xyz
 1  'x, y, z'
loop_
 _atom_site_type_symbol
 _atom_site_label
 _atom_site_symmetry_multiplicity
 _atom_site_fract_x
 _atom_site_fract_y
 _atom_site_fract_z
 _atom_site_fract_occupancy
 Cu  Cu1  1  0.00000  0.00000  0.00000  1
 N  N1  1  0.76194  0.76194  0.71417  1
 N  N2  1  0.23806  0.23806  0.28583  1
 Ta  Ta1  1  0.50000  0.50000  0.50000  1
