CIF file written using JARVIS-Tools package.
data_Li3VO2F2
_symmetry_space_group_name_H-M  'Cmmm'
_cell_length_a       2.84927
_cell_length_b       5.84432
_cell_length_c       5.84432
_cell_angle_alpha    59.6518
_cell_angle_beta     119.179
_cell_angle_gamma    119.179

_symmetry_Int_Tables_number  65
_chemical_formula_structural  Li3VO2F2
_chemical_formula_sum  Li3VO2F2
_cell_volume  69.46803676187353
_cell_formula_units_Z  1
loop_
  _symmetry_equiv_pos_site_id
 _symmetry_equiv_pos_as_xyz
 1  'x, y, z'
loop_
 _atom_site_type_symbol
 _atom_site_label
 _atom_site_symmetry_multiplicity
 _atom_site_fract_x
 _atom_site_fract_y
 _atom_site_fract_z
 _atom_site_fract_occupancy
 F  F1  1  0.49393  0.24772  0.24772  1
 F  F2  1  0.50566  0.75358  0.75358  1
 Li  Li1  1  0.99975  0.50065  0.00059  1
 Li  Li2  1  -0.00016  0.50059  0.50059  1
 Li  Li3  1  0.99975  0.00059  0.50065  1
 O  O1  1  0.49979  0.76235  0.23893  1
 O  O2  1  0.49979  0.23893  0.76235  1
 V  V1  1  0.99978  0.00064  0.00065  1
