CIF file written using JARVIS-Tools package.
data_Li3VCrP2O8F2
_symmetry_space_group_name_H-M  'P1'
_cell_length_a       5.24345
_cell_length_b       5.25557
_cell_length_c       7.2605
_cell_angle_alpha    106.215
_cell_angle_beta     107.742
_cell_angle_gamma    97.2622

_symmetry_Int_Tables_number  1
_chemical_formula_structural  Li3VCrP2O8F2
_chemical_formula_sum  Li3VCrP2O8F2
_cell_volume  178.02297383948402
_cell_formula_units_Z  1
loop_
  _symmetry_equiv_pos_site_id
 _symmetry_equiv_pos_as_xyz
 1  'x, y, z'
loop_
 _atom_site_type_symbol
 _atom_site_label
 _atom_site_symmetry_multiplicity
 _atom_site_fract_x
 _atom_site_fract_y
 _atom_site_fract_z
 _atom_site_fract_occupancy
 Cr  Cr1  1  0.99936  0.00182  0.50072  1
 F  F1  1  0.15640  0.92350  0.26763  1
 F  F2  1  0.84257  0.08045  0.73389  1
 Li  Li1  1  0.75965  0.41873  0.85072  1
 Li  Li2  1  0.24016  0.58548  0.15134  1
 Li  Li3  1  0.49938  0.00296  0.50108  1
 O  O1  1  0.11917  0.64885  0.87391  1
 O  O2  1  0.32084  0.32748  0.65028  1
 O  O3  1  0.62349  0.74869  0.91607  1
 O  O4  1  0.73811  0.22051  0.39965  1
 O  O5  1  0.67810  0.67622  0.35105  1
 O  O6  1  0.88015  0.35495  0.12769  1
 O  O7  1  0.37570  0.25499  0.08525  1
 O  O8  1  0.26087  0.78331  0.60184  1
 P  P1  1  0.67172  0.37208  0.24270  1
 P  P2  1  0.32739  0.63167  0.75873  1
 V  V1  1  -0.00041  0.00190  0.00073  1
