CIF file written using JARVIS-Tools package.
data_LiV5O7F
_symmetry_space_group_name_H-M  'R3m'
_cell_length_a       5.99636
_cell_length_b       5.99636
_cell_length_c       5.88732
_cell_angle_alpha    59.3854
_cell_angle_beta     59.3854
_cell_angle_gamma    60

_symmetry_Int_Tables_number  160
_chemical_formula_structural  LiV5O7F
_chemical_formula_sum  LiV5O7F
_cell_volume  148.279403386171
_cell_formula_units_Z  1
loop_
  _symmetry_equiv_pos_site_id
 _symmetry_equiv_pos_as_xyz
 1  'x, y, z'
loop_
 _atom_site_type_symbol
 _atom_site_label
 _atom_site_symmetry_multiplicity
 _atom_site_fract_x
 _atom_site_fract_y
 _atom_site_fract_z
 _atom_site_fract_occupancy
 F  F1  1  0.37745  0.37745  0.86766  1
 Li  Li1  1  0.24120  0.24120  0.27639  1
 O  O1  1  0.84371  0.38067  0.39496  1
 O  O2  1  0.38067  0.38067  0.39496  1
 O  O3  1  0.38067  0.84371  0.39496  1
 O  O4  1  0.87254  0.87254  0.38239  1
 O  O5  1  0.86814  0.39439  0.86934  1
 O  O6  1  0.39439  0.86814  0.86934  1
 O  O7  1  0.86814  0.86814  0.86934  1
 V  V1  1  0.00802  0.00802  0.97594  1
 V  V2  1  0.62241  0.62241  0.13277  1
 V  V3  1  0.63524  0.12220  0.60732  1
 V  V4  1  0.12220  0.63524  0.60732  1
 V  V5  1  0.63524  0.63524  0.60732  1
