CIF file written using JARVIS-Tools package.
data_Li2V2F7
_symmetry_space_group_name_H-M  'C2/c'
_cell_length_a       4.99182
_cell_length_b       4.99182
_cell_length_c       11.6402
_cell_angle_alpha    112.654
_cell_angle_beta     67.346
_cell_angle_gamma    97.4351

_symmetry_Int_Tables_number  15
_chemical_formula_structural  Li2V2F7
_chemical_formula_sum  Li4V4F4
_cell_volume  246.96288486991548
_cell_formula_units_Z  2
loop_
  _symmetry_equiv_pos_site_id
 _symmetry_equiv_pos_as_xyz
 1  'x, y, z'
loop_
 _atom_site_type_symbol
 _atom_site_label
 _atom_site_symmetry_multiplicity
 _atom_site_fract_x
 _atom_site_fract_y
 _atom_site_fract_z
 _atom_site_fract_occupancy
 F  F1  1  0.81460  0.31460  0.25000  1
 F  F2  1  0.13386  0.80669  0.37132  1
 F  F3  1  0.39785  0.14422  0.12440  1
 F  F4  1  0.60215  0.85578  0.87560  1
 F  F5  1  0.22026  0.31398  0.37182  1
 F  F6  1  0.18540  0.68540  0.75000  1
 F  F7  1  0.30669  0.63386  0.12868  1
 F  F8  1  0.64422  0.89785  0.37560  1
 F  F9  1  0.35578  0.10215  0.62440  1
 F  F10  1  0.81398  0.72026  0.12818  1
 F  F11  1  0.86614  0.19331  0.62868  1
 F  F12  1  0.77974  0.68602  0.62818  1
 F  F13  1  0.69331  0.36614  0.87132  1
 F  F14  1  0.18602  0.27974  0.87182  1
 Li  Li1  1  0.74981  0.85370  0.51275  1
 Li  Li2  1  0.35370  0.24981  0.98725  1
 Li  Li3  1  0.64630  0.75019  0.01275  1
 Li  Li4  1  0.25019  0.14630  0.48725  1
 V  V1  1  0.97183  0.00540  0.75455  1
 V  V2  1  0.50540  0.47183  0.74545  1
 V  V3  1  0.49460  0.52817  0.25455  1
 V  V4  1  0.02817  0.99460  0.24545  1
