CIF file written using JARVIS-Tools package.
data_Li2MnNiO4
_symmetry_space_group_name_H-M  'Imma'
_cell_length_a       5.79696
_cell_length_b       5.79696
_cell_length_c       5.70897
_cell_angle_alpha    119.497
_cell_angle_beta     119.497
_cell_angle_gamma    90.3247

_symmetry_Int_Tables_number  74
_chemical_formula_structural  Li2MnNiO4
_chemical_formula_sum  Li4Mn2Ni2O8
_cell_volume  137.3215131144666
_cell_formula_units_Z  2
loop_
  _symmetry_equiv_pos_site_id
 _symmetry_equiv_pos_as_xyz
 1  'x, y, z'
loop_
 _atom_site_type_symbol
 _atom_site_label
 _atom_site_symmetry_multiplicity
 _atom_site_fract_x
 _atom_site_fract_y
 _atom_site_fract_z
 _atom_site_fract_occupancy
 Li  Li1  1  -0.00000  0.50000  0.50000  1
 Li  Li2  1  0.50000  0.50000  0.50000  1
 Li  Li3  1  0.50000  0.00000  0.00000  1
 Li  Li4  1  0.50000  0.50000  0.00000  1
 Mn  Mn1  1  -0.00000  -0.00000  0.50000  1
 Mn  Mn2  1  0.00000  0.00000  0.00000  1
 Ni  Ni1  1  0.00000  0.50000  0.00000  1
 Ni  Ni2  1  0.50000  -0.00000  0.50000  1
 O  O1  1  0.23369  0.76631  0.00600  1
 O  O2  1  0.22512  0.23004  0.47758  1
 O  O3  1  0.23369  0.76631  0.49400  1
 O  O4  1  0.76996  0.77488  0.02242  1
 O  O5  1  0.23004  0.22512  0.97758  1
 O  O6  1  0.76631  0.23369  0.50600  1
 O  O7  1  0.77488  0.76996  0.52242  1
 O  O8  1  0.76631  0.23369  0.99400  1
