CIF file written using JARVIS-Tools package.
data_Mg2FeO4
_symmetry_space_group_name_H-M  'Fd-3m'
_cell_length_a       5.9172
_cell_length_b       5.91722
_cell_length_c       5.9172
_cell_angle_alpha    120
_cell_angle_beta     90
_cell_angle_gamma    60.0001

_symmetry_Int_Tables_number  227
_chemical_formula_structural  Mg2FeO4
_chemical_formula_sum  Mg4Fe2O8
_cell_volume  146.49910833370052
_cell_formula_units_Z  2
loop_
  _symmetry_equiv_pos_site_id
 _symmetry_equiv_pos_as_xyz
 1  'x, y, z'
loop_
 _atom_site_type_symbol
 _atom_site_label
 _atom_site_symmetry_multiplicity
 _atom_site_fract_x
 _atom_site_fract_y
 _atom_site_fract_z
 _atom_site_fract_occupancy
 Fe  Fe1  1  0.75000  0.50000  0.75000  1
 Fe  Fe2  1  0.00000  0.00000  0.00000  1
 Mg  Mg1  1  0.37500  0.75000  0.37500  1
 Mg  Mg2  1  0.87500  0.75000  0.37500  1
 Mg  Mg3  1  0.37500  0.25000  0.87500  1
 Mg  Mg4  1  0.37500  0.25000  0.37500  1
 O  O1  1  0.62342  0.75316  0.62343  1
 O  O2  1  0.62342  0.75316  0.12972  1
 O  O3  1  0.12658  0.74684  0.12657  1
 O  O4  1  0.12658  0.74684  0.62028  1
 O  O5  1  0.62028  0.25316  0.12658  1
 O  O6  1  0.12657  0.25316  0.12658  1
 O  O7  1  0.62343  0.24684  0.62342  1
 O  O8  1  0.12972  0.24684  0.62342  1
