CIF file written using JARVIS-Tools package.
data_NaYSe2
_symmetry_space_group_name_H-M  'R-3m'
_cell_length_a       4.1257
_cell_length_b       4.1257
_cell_length_c       7.3103
_cell_angle_alpha    73.6094
_cell_angle_beta     73.6094
_cell_angle_gamma    60

_symmetry_Int_Tables_number  166
_chemical_formula_structural  NaYSe2
_chemical_formula_sum  NaYSe2
_cell_volume  101.88001404085409
_cell_formula_units_Z  1
loop_
  _symmetry_equiv_pos_site_id
 _symmetry_equiv_pos_as_xyz
 1  'x, y, z'
loop_
 _atom_site_type_symbol
 _atom_site_label
 _atom_site_symmetry_multiplicity
 _atom_site_fract_x
 _atom_site_fract_y
 _atom_site_fract_z
 _atom_site_fract_occupancy
 Na  Na1  1  0.00000  0.00000  0.00000  1
 Se  Se1  1  0.75585  0.75585  0.73245  1
 Se  Se2  1  0.24415  0.24415  0.26755  1
 Y  Y1  1  0.50000  0.50000  0.50000  1
