CIF file written using JARVIS-Tools package.
data_Li4Mn3OF11
_symmetry_space_group_name_H-M  'P1'
_cell_length_a       5.4628
_cell_length_b       6.31827
_cell_length_c       6.60076
_cell_angle_alpha    107.513
_cell_angle_beta     95.9772
_cell_angle_gamma    102.59

_symmetry_Int_Tables_number  1
_chemical_formula_structural  Li4Mn3OF11
_chemical_formula_sum  Li4Mn3OF
_cell_volume  208.48889884536848
_cell_formula_units_Z  1
loop_
  _symmetry_equiv_pos_site_id
 _symmetry_equiv_pos_as_xyz
 1  'x, y, z'
loop_
 _atom_site_type_symbol
 _atom_site_label
 _atom_site_symmetry_multiplicity
 _atom_site_fract_x
 _atom_site_fract_y
 _atom_site_fract_z
 _atom_site_fract_occupancy
 F  F1  1  0.33573  0.12910  0.08508  1
 F  F2  1  0.05193  0.70382  0.89584  1
 F  F3  1  0.93471  0.29185  0.11946  1
 F  F4  1  0.65722  0.86354  -0.06080  1
 F  F5  1  0.18789  0.41701  0.56533  1
 F  F6  1  0.40026  0.85420  0.55404  1
 F  F7  1  0.54773  0.35114  0.79893  1
 F  F8  1  0.81309  0.60636  0.44288  1
 F  F9  1  0.43442  0.61063  0.17292  1
 F  F10  1  0.99486  0.05923  0.72619  1
 F  F11  1  0.63962  0.15600  0.42451  1
 Li  Li1  1  0.84446  0.44945  0.64937  1
 Li  Li2  1  0.61096  0.36140  0.10024  1
 Li  Li3  1  0.37116  0.62292  0.88699  1
 Li  Li4  1  0.16018  0.55833  0.34047  1
 Mn  Mn1  1  0.28621  0.13574  0.55271  1
 Mn  Mn2  1  -0.00332  -0.00283  0.01979  1
 Mn  Mn3  1  0.71562  0.87056  0.41431  1
 O  O1  1  0.01727  0.96154  0.31174  1
