CIF file written using JARVIS-Tools package.
data_Cr2O5
_symmetry_space_group_name_H-M  'Cmcm'
_cell_length_a       11.0983
_cell_length_b       5.30974
_cell_length_c       3.55001
_cell_angle_alpha    109.529
_cell_angle_beta     90
_cell_angle_gamma    90

_symmetry_Int_Tables_number  63
_chemical_formula_structural  Cr2O5
_chemical_formula_sum  Cr4O0
_cell_volume  197.1632877287935
_cell_formula_units_Z  2
loop_
  _symmetry_equiv_pos_site_id
 _symmetry_equiv_pos_as_xyz
 1  'x, y, z'
loop_
 _atom_site_type_symbol
 _atom_site_label
 _atom_site_symmetry_multiplicity
 _atom_site_fract_x
 _atom_site_fract_y
 _atom_site_fract_z
 _atom_site_fract_occupancy
 Cr  Cr1  1  0.14804  0.90235  0.95118  1
 Cr  Cr2  1  0.35196  0.09765  0.54882  1
 Cr  Cr3  1  0.64804  0.09765  0.54882  1
 Cr  Cr4  1  0.85196  0.90235  0.95118  1
 O  O1  1  0.00000  0.02368  0.01184  1
 O  O2  1  0.13381  0.58994  0.79497  1
 O  O3  1  0.18264  0.00177  0.50088  1
 O  O4  1  0.31736  0.99823  0.99911  1
 O  O5  1  0.36619  0.41006  0.70503  1
 O  O6  1  0.50000  0.97632  0.48816  1
 O  O7  1  0.63381  0.41006  0.70503  1
 O  O8  1  0.86619  0.58994  0.79497  1
 O  O9  1  0.68264  0.99823  0.99911  1
 O  O10  1  0.81736  0.00177  0.50088  1
