CIF file written using JARVIS-Tools package.
data_Te2MoW3S6
_symmetry_space_group_name_H-M  'P3m1'
_cell_length_a       3.28706
_cell_length_b       3.28701
_cell_length_c       38.7272
_cell_angle_alpha    89.9989
_cell_angle_beta     90
_cell_angle_gamma    120.001

_symmetry_Int_Tables_number  156
_chemical_formula_structural  Te2MoW3S6
_chemical_formula_sum  Te2MoW3S6
_cell_volume  362.3714802247735
_cell_formula_units_Z  1
loop_
  _symmetry_equiv_pos_site_id
 _symmetry_equiv_pos_as_xyz
 1  'x, y, z'
loop_
 _atom_site_type_symbol
 _atom_site_label
 _atom_site_symmetry_multiplicity
 _atom_site_fract_x
 _atom_site_fract_y
 _atom_site_fract_z
 _atom_site_fract_occupancy
 Mo  Mo1  1  0.33342  0.66683  0.09276  1
 S  S1  1  0.33344  0.66689  0.69747  1
 S  S2  1  0.66672  0.33344  0.05328  1
 S  S3  1  0.66652  0.33304  0.43092  1
 S  S4  1  0.66668  0.33337  0.13242  1
 S  S5  1  0.66649  0.33297  0.51072  1
 S  S6  1  0.33348  0.66696  0.61787  1
 Te  Te1  1  0.33331  0.66662  0.33173  1
 Te  Te2  1  0.33334  0.66669  0.23148  1
 W  W1  1  0.33316  0.66632  0.47081  1
 W  W2  1  0.66666  0.33332  0.28157  1
 W  W3  1  0.66677  0.33355  0.65771  1
