CIF file written using JARVIS-Tools package.
data_LiTiVO4
_symmetry_space_group_name_H-M  'Imma'
_cell_length_a       5.82315
_cell_length_b       5.91003
_cell_length_c       5.91003
_cell_angle_alpha    60.5244
_cell_angle_beta     60.4851
_cell_angle_gamma    60.4851

_symmetry_Int_Tables_number  74
_chemical_formula_structural  LiTiVO4
_chemical_formula_sum  Li2Ti2V2O8
_cell_volume  145.44044247493323
_cell_formula_units_Z  2
loop_
  _symmetry_equiv_pos_site_id
 _symmetry_equiv_pos_as_xyz
 1  'x, y, z'
loop_
 _atom_site_type_symbol
 _atom_site_label
 _atom_site_symmetry_multiplicity
 _atom_site_fract_x
 _atom_site_fract_y
 _atom_site_fract_z
 _atom_site_fract_occupancy
 Li  Li1  1  0.12767  0.12233  0.12233  1
 Li  Li2  1  0.87233  0.87767  0.87767  1
 O  O1  1  0.26327  0.25925  0.25925  1
 O  O2  1  0.26281  0.25847  0.71592  1
 O  O3  1  0.26281  0.71592  0.25847  1
 O  O4  1  0.71823  0.25925  0.25925  1
 O  O5  1  0.28177  0.74075  0.74075  1
 O  O6  1  0.73719  0.74153  0.28408  1
 O  O7  1  0.73719  0.28408  0.74153  1
 O  O8  1  0.73673  0.74075  0.74075  1
 Ti  Ti1  1  0.50000  -0.00000  0.50000  1
 Ti  Ti2  1  0.50000  0.50000  0.00000  1
 V  V1  1  -0.00000  0.50000  0.50000  1
 V  V2  1  0.50000  0.50000  0.50000  1
