CIF file written using JARVIS-Tools package.
data_MoH2Cl2O3
_symmetry_space_group_name_H-M  'Pmn2_1'
_cell_length_a       9.11078
_cell_length_b       3.88423
_cell_length_c       6.91565
_cell_angle_alpha    90
_cell_angle_beta     90
_cell_angle_gamma    90

_symmetry_Int_Tables_number  31
_chemical_formula_structural  MoH2Cl2O3
_chemical_formula_sum  Mo2H4Cl4O6
_cell_volume  244.73391586127795
_cell_formula_units_Z  2
loop_
  _symmetry_equiv_pos_site_id
 _symmetry_equiv_pos_as_xyz
 1  'x, y, z'
loop_
 _atom_site_type_symbol
 _atom_site_label
 _atom_site_symmetry_multiplicity
 _atom_site_fract_x
 _atom_site_fract_y
 _atom_site_fract_z
 _atom_site_fract_occupancy
 Cl  Cl1  1  0.75137  0.77161  0.74996  1
 Cl  Cl2  1  0.24863  0.77161  0.74996  1
 Cl  Cl3  1  0.74863  0.22839  0.24996  1
 Cl  Cl4  1  0.25137  0.22839  0.24996  1
 H  H1  1  0.58713  0.83439  0.40955  1
 H  H2  1  0.41287  0.83439  0.40955  1
 H  H3  1  0.91287  0.16561  0.90955  1
 H  H4  1  0.08713  0.16561  0.90955  1
 Mo  Mo1  1  0.50000  0.69708  0.81038  1
 Mo  Mo2  1  0.00000  0.30292  0.31038  1
 O  O1  1  0.50000  0.75365  0.48011  1
 O  O2  1  0.00000  0.24635  0.98011  1
 O  O3  1  0.50000  0.74237  0.05269  1
 O  O4  1  0.00000  0.25763  0.55269  1
 O  O5  1  0.50000  0.24882  0.78061  1
 O  O6  1  0.00000  0.75118  0.28061  1
