CIF file written using JARVIS-Tools package.
data_Li3ZnPCO7
_symmetry_space_group_name_H-M  'P2_1/m'
_cell_length_a       4.93228
_cell_length_b       6.30463
_cell_length_c       8.52462
_cell_angle_alpha    90
_cell_angle_beta     95.4081
_cell_angle_gamma    90

_symmetry_Int_Tables_number  11
_chemical_formula_structural  Li3ZnPCO7
_chemical_formula_sum  Li6Zn2P2C2O4
_cell_volume  263.903527780376
_cell_formula_units_Z  2
loop_
  _symmetry_equiv_pos_site_id
 _symmetry_equiv_pos_as_xyz
 1  'x, y, z'
loop_
 _atom_site_type_symbol
 _atom_site_label
 _atom_site_symmetry_multiplicity
 _atom_site_fract_x
 _atom_site_fract_y
 _atom_site_fract_z
 _atom_site_fract_occupancy
 C  C1  1  0.31060  0.25000  0.04160  1
 C  C2  1  0.68940  0.75000  0.95840  1
 Li  Li1  1  0.21084  0.75000  0.10657  1
 Li  Li2  1  0.73689  0.99181  0.25970  1
 Li  Li3  1  0.73689  0.50819  0.25970  1
 Li  Li4  1  0.26311  0.49181  0.74030  1
 Li  Li5  1  0.26311  0.00819  0.74030  1
 Li  Li6  1  0.78916  0.25000  0.89343  1
 O  O1  1  0.39554  0.25000  0.90145  1
 O  O2  1  0.60446  0.75000  0.09855  1
 O  O3  1  0.48979  0.25000  0.16572  1
 O  O4  1  0.15439  0.94014  0.30665  1
 O  O5  1  0.15439  0.55986  0.30665  1
 O  O6  1  0.05670  0.25000  0.06163  1
 O  O7  1  0.82686  0.25000  0.42323  1
 O  O8  1  0.17314  0.75000  0.57677  1
 O  O9  1  0.51021  0.75000  0.83428  1
 O  O10  1  0.84561  0.44014  0.69335  1
 O  O11  1  0.84561  0.05986  0.69335  1
 O  O12  1  0.58312  0.75000  0.42402  1
 O  O13  1  0.41688  0.25000  0.57598  1
 O  O14  1  0.94330  0.75000  0.93837  1
 P  P1  1  0.26474  0.75000  0.40975  1
 P  P2  1  0.73526  0.25000  0.59025  1
 Zn  Zn1  1  0.77411  0.75000  0.64803  1
 Zn  Zn2  1  0.22589  0.25000  0.35197  1
