CIF file written using JARVIS-Tools package.
data_LiNiPO4
_symmetry_space_group_name_H-M  'Fdd2'
_cell_length_a       5.39813
_cell_length_b       6.17348
_cell_length_c       5.39813
_cell_angle_alpha    76.7128
_cell_angle_beta     61.6854
_cell_angle_gamma    103.287

_symmetry_Int_Tables_number  43
_chemical_formula_structural  LiNiPO4
_chemical_formula_sum  Li2Ni2P2O8
_cell_volume  141.56593887781747
_cell_formula_units_Z  2
loop_
  _symmetry_equiv_pos_site_id
 _symmetry_equiv_pos_as_xyz
 1  'x, y, z'
loop_
 _atom_site_type_symbol
 _atom_site_label
 _atom_site_symmetry_multiplicity
 _atom_site_fract_x
 _atom_site_fract_y
 _atom_site_fract_z
 _atom_site_fract_occupancy
 Li  Li1  1  0.80653  0.25000  0.80653  1
 Li  Li2  1  0.55653  0.75000  0.55653  1
 Ni  Ni1  1  0.44289  0.25000  0.44289  1
 Ni  Ni2  1  0.19289  0.75000  0.19289  1
 O  O1  1  0.77769  0.10442  0.26998  1
 O  O2  1  0.29477  0.08890  0.16148  1
 O  O3  1  0.75038  0.58890  0.20588  1
 O  O4  1  0.87439  0.60442  0.67327  1
 O  O5  1  0.16148  0.41110  0.29477  1
 O  O6  1  0.26998  0.39558  0.77769  1
 O  O7  1  0.67327  0.89558  0.87439  1
 O  O8  1  0.20588  0.91110  0.75038  1
 P  P1  1  0.12166  0.25000  0.12166  1
 P  P2  1  0.87166  0.75000  0.87166  1
