CIF file written using JARVIS-Tools package.
data_Li4TiMn3P4O16
_symmetry_space_group_name_H-M  'Pm'
_cell_length_a       4.72715
_cell_length_b       6.10437
_cell_length_c       10.4878
_cell_angle_alpha    90
_cell_angle_beta     90.0733
_cell_angle_gamma    90

_symmetry_Int_Tables_number  6
_chemical_formula_structural  Li4TiMn3P4O16
_chemical_formula_sum  Li4TiMn3P4O6
_cell_volume  302.63966764584325
_cell_formula_units_Z  1
loop_
  _symmetry_equiv_pos_site_id
 _symmetry_equiv_pos_as_xyz
 1  'x, y, z'
loop_
 _atom_site_type_symbol
 _atom_site_label
 _atom_site_symmetry_multiplicity
 _atom_site_fract_x
 _atom_site_fract_y
 _atom_site_fract_z
 _atom_site_fract_occupancy
 Li  Li1  1  -0.00082  0.25227  0.99679  1
 Li  Li2  1  -0.00082  0.74773  0.99679  1
 Li  Li3  1  0.49946  0.74886  0.50244  1
 Li  Li4  1  0.49946  0.25114  0.50244  1
 Mn  Mn1  1  0.97164  0.50000  0.71868  1
 Mn  Mn2  1  0.52755  0.50000  0.21881  1
 Mn  Mn3  1  0.47204  0.00000  0.78098  1
 O  O1  1  0.78782  0.00000  0.45280  1
 O  O2  1  0.21086  0.29706  0.33774  1
 O  O3  1  0.78044  0.79759  0.65960  1
 O  O4  1  0.75669  0.50000  0.40803  1
 O  O5  1  0.73871  0.50000  0.90738  1
 O  O6  1  0.72830  0.20084  0.16335  1
 O  O7  1  0.78044  0.20241  0.65960  1
 O  O8  1  0.71460  0.00000  0.95586  1
 O  O9  1  0.28857  0.50000  0.04631  1
 O  O10  1  0.23813  0.00000  0.59179  1
 O  O11  1  0.28105  0.29743  0.83970  1
 O  O12  1  0.26659  0.00000  0.09548  1
 O  O13  1  0.72830  0.79916  0.16335  1
 O  O14  1  0.21086  0.70294  0.33774  1
 O  O15  1  0.28105  0.70257  0.83970  1
 O  O16  1  0.21337  0.50000  0.54443  1
 P  P1  1  0.91357  0.00000  0.59022  1
 P  P2  1  0.59058  0.00000  0.09253  1
 P  P3  1  0.41406  0.50000  0.90925  1
 P  P4  1  0.08092  0.50000  0.40912  1
 Ti  Ti1  1  0.02657  0.00000  0.27907  1
