CIF file written using JARVIS-Tools package.
data_Li14Co2S9
_symmetry_space_group_name_H-M  'P-3'
_cell_length_a       6.94248
_cell_length_b       6.94248
_cell_length_c       9.72348
_cell_angle_alpha    90
_cell_angle_beta     90
_cell_angle_gamma    120

_symmetry_Int_Tables_number  147
_chemical_formula_structural  Li14Co2S9
_chemical_formula_sum  Li4Co2S9
_cell_volume  405.86538135002417
_cell_formula_units_Z  1
loop_
  _symmetry_equiv_pos_site_id
 _symmetry_equiv_pos_as_xyz
 1  'x, y, z'
loop_
 _atom_site_type_symbol
 _atom_site_label
 _atom_site_symmetry_multiplicity
 _atom_site_fract_x
 _atom_site_fract_y
 _atom_site_fract_z
 _atom_site_fract_occupancy
 Co  Co1  1  0.33333  0.66667  0.74506  1
 Co  Co2  1  0.66667  0.33333  0.25494  1
 Li  Li1  1  0.34599  0.01777  0.91068  1
 Li  Li2  1  0.67178  0.65401  0.91068  1
 Li  Li3  1  0.67532  0.03974  0.59182  1
 Li  Li4  1  0.00000  0.00000  0.24987  1
 Li  Li5  1  0.00000  0.00000  0.75013  1
 Li  Li6  1  0.98223  0.32822  0.91068  1
 Li  Li7  1  0.36442  0.32468  0.59182  1
 Li  Li8  1  0.03974  0.36442  0.40818  1
 Li  Li9  1  0.96026  0.63558  0.59182  1
 Li  Li10  1  0.32822  0.34599  0.08932  1
 Li  Li11  1  0.01777  0.67178  0.08932  1
 Li  Li12  1  0.32468  0.96026  0.40818  1
 Li  Li13  1  0.65401  0.98223  0.08932  1
 Li  Li14  1  0.63558  0.67532  0.40818  1
 S  S1  1  0.00000  0.00000  0.00000  1
 S  S2  1  0.33333  0.66667  0.98246  1
 S  S3  1  0.96696  0.65669  0.33734  1
 S  S4  1  0.03304  0.34331  0.66266  1
 S  S5  1  0.34331  0.31027  0.33734  1
 S  S6  1  0.66667  0.33333  0.01754  1
 S  S7  1  0.68973  0.03304  0.33734  1
 S  S8  1  0.31027  0.96696  0.66266  1
 S  S9  1  0.65669  0.68973  0.66266  1
