CIF file written using JARVIS-Tools package.
data_Li2V2F7
_symmetry_space_group_name_H-M  'P-1'
_cell_length_a       5.30128
_cell_length_b       6.85744
_cell_length_c       8.66965
_cell_angle_alpha    71.6014
_cell_angle_beta     71.0847
_cell_angle_gamma    81.5014

_symmetry_Int_Tables_number  2
_chemical_formula_structural  Li2V2F7
_chemical_formula_sum  Li4V4F4
_cell_volume  282.54655693949707
_cell_formula_units_Z  2
loop_
  _symmetry_equiv_pos_site_id
 _symmetry_equiv_pos_as_xyz
 1  'x, y, z'
loop_
 _atom_site_type_symbol
 _atom_site_label
 _atom_site_symmetry_multiplicity
 _atom_site_fract_x
 _atom_site_fract_y
 _atom_site_fract_z
 _atom_site_fract_occupancy
 F  F1  1  0.23005  0.50626  0.71803  1
 F  F2  1  0.40815  0.26138  0.16783  1
 F  F3  1  0.17425  0.72287  0.19596  1
 F  F4  1  0.82575  0.27713  0.80404  1
 F  F5  1  0.89466  0.05657  0.27538  1
 F  F6  1  0.76995  0.49374  0.28197  1
 F  F7  1  0.69270  0.90529  0.07194  1
 F  F8  1  0.39409  0.86414  0.39712  1
 F  F9  1  0.60591  0.13586  0.60288  1
 F  F10  1  0.77864  0.67387  0.53482  1
 F  F11  1  0.59185  0.73862  0.83217  1
 F  F12  1  0.10534  0.94343  0.72462  1
 F  F13  1  0.30730  0.09471  0.92806  1
 F  F14  1  0.22136  0.32613  0.46518  1
 Li  Li1  1  0.85779  0.56691  0.73810  1
 Li  Li2  1  0.40513  0.74384  0.66392  1
 Li  Li3  1  0.59487  0.25616  0.33608  1
 Li  Li4  1  0.14221  0.43309  0.26190  1
 V  V1  1  0.70461  0.00336  0.81989  1
 V  V2  1  0.22130  0.22811  0.69956  1
 V  V3  1  0.77870  0.77189  0.30044  1
 V  V4  1  0.29539  -0.00336  0.18011  1
