CIF file written using JARVIS-Tools package.
data_LiVF4
_symmetry_space_group_name_H-M  'I-4m2'
_cell_length_a       3.89627
_cell_length_b       3.89609
_cell_length_c       5.50774
_cell_angle_alpha    110.719
_cell_angle_beta     110.716
_cell_angle_gamma    89.9982

_symmetry_Int_Tables_number  119
_chemical_formula_structural  LiVF4
_chemical_formula_sum  LiVF4
_cell_volume  72.39322586157896
_cell_formula_units_Z  1
loop_
  _symmetry_equiv_pos_site_id
 _symmetry_equiv_pos_as_xyz
 1  'x, y, z'
loop_
 _atom_site_type_symbol
 _atom_site_label
 _atom_site_symmetry_multiplicity
 _atom_site_fract_x
 _atom_site_fract_y
 _atom_site_fract_z
 _atom_site_fract_occupancy
 F  F1  1  0.80014  0.79726  0.59977  1
 F  F2  1  0.20242  0.19955  0.40429  1
 F  F3  1  0.98768  0.48490  0.97500  1
 F  F4  1  0.51477  0.01197  0.02907  1
 Li  Li1  1  0.75124  0.24834  0.50197  1
 V  V1  1  0.00125  0.99843  0.00203  1
