CIF file written using JARVIS-Tools package.
data_LiCrPO4
_symmetry_space_group_name_H-M  'P1'
_cell_length_a       5.17715
_cell_length_b       4.94883
_cell_length_c       7.61534
_cell_angle_alpha    82.6079
_cell_angle_beta     76.7691
_cell_angle_gamma    57.0144

_symmetry_Int_Tables_number  1
_chemical_formula_structural  LiCrPO4
_chemical_formula_sum  Li2Cr2P2O8
_cell_volume  159.31427606657547
_cell_formula_units_Z  2
loop_
  _symmetry_equiv_pos_site_id
 _symmetry_equiv_pos_as_xyz
 1  'x, y, z'
loop_
 _atom_site_type_symbol
 _atom_site_label
 _atom_site_symmetry_multiplicity
 _atom_site_fract_x
 _atom_site_fract_y
 _atom_site_fract_z
 _atom_site_fract_occupancy
 Cr  Cr1  1  0.04686  -0.03986  0.53311  1
 Cr  Cr2  1  -0.01703  -0.02477  -0.02072  1
 Li  Li1  1  0.34255  0.31568  0.83473  1
 Li  Li2  1  0.66151  0.66721  0.31321  1
 O  O1  1  0.76705  0.29789  0.76331  1
 O  O2  1  0.06464  0.28118  0.35149  1
 O  O3  1  0.17362  0.52485  0.06251  1
 O  O4  1  0.62749  0.06257  0.18628  1
 O  O5  1  -0.00824  0.64970  0.71842  1
 O  O6  1  0.42820  0.87919  0.88612  1
 O  O7  1  0.54959  0.79858  0.55675  1
 O  O8  1  0.31448  0.60933  0.33980  1
 P  P1  1  0.29887  0.36832  0.23972  1
 P  P2  1  0.68184  0.65979  0.72777  1
