CIF file written using JARVIS-Tools package.
data_TlI3O9
_symmetry_space_group_name_H-M  'R-3'
_cell_length_a       7.44368
_cell_length_b       7.44108
_cell_length_c       7.44089
_cell_angle_alpha    83.5816
_cell_angle_beta     83.5787
_cell_angle_gamma    83.5998

_symmetry_Int_Tables_number  148
_chemical_formula_structural  TlI3O9
_chemical_formula_sum  Tl2I6O8
_cell_volume  404.9420659386428
_cell_formula_units_Z  2
loop_
  _symmetry_equiv_pos_site_id
 _symmetry_equiv_pos_as_xyz
 1  'x, y, z'
loop_
 _atom_site_type_symbol
 _atom_site_label
 _atom_site_symmetry_multiplicity
 _atom_site_fract_x
 _atom_site_fract_y
 _atom_site_fract_z
 _atom_site_fract_occupancy
 I  I1  1  0.28953  0.87633  0.58756  1
 I  I2  1  0.58744  0.28966  0.87621  1
 I  I3  1  0.87618  0.58723  0.28955  1
 I  I4  1  0.71047  0.12367  0.41244  1
 I  I5  1  0.41256  0.71034  0.12379  1
 I  I6  1  0.12382  0.41277  0.71045  1
 O  O1  1  0.91281  0.56879  0.68024  1
 O  O2  1  0.21601  0.74102  0.42195  1
 O  O3  1  0.42174  0.21618  0.74104  1
 O  O4  1  0.74129  0.42150  0.21564  1
 O  O5  1  0.78399  0.25898  0.57805  1
 O  O6  1  0.30153  0.93046  0.03285  1
 O  O7  1  0.25871  0.57850  0.78436  1
 O  O8  1  0.31990  0.08720  0.43116  1
 O  O9  1  0.57826  0.78382  0.25896  1
 O  O10  1  0.03295  0.30127  0.93042  1
 O  O11  1  0.68010  0.91280  0.56884  1
 O  O12  1  0.56878  0.68009  0.91282  1
 O  O13  1  0.43122  0.31991  0.08718  1
 O  O14  1  0.06947  0.96727  0.69860  1
 O  O15  1  0.69847  0.06954  0.96715  1
 O  O16  1  0.96705  0.69873  0.06958  1
 O  O17  1  0.93053  0.03273  0.30140  1
 O  O18  1  0.08719  0.43121  0.31976  1
 Tl  Tl1  1  0.17461  0.17451  0.17455  1
 Tl  Tl2  1  0.82539  0.82549  0.82545  1
