CIF file written using JARVIS-Tools package.
data_TeMoS
_symmetry_space_group_name_H-M  'P-3m1'
_cell_length_a       3.38021
_cell_length_b       26.6492
_cell_length_c       3.38021
_cell_angle_alpha    89.9991
_cell_angle_beta     120
_cell_angle_gamma    90.0004

_symmetry_Int_Tables_number  164
_chemical_formula_structural  TeMoS
_chemical_formula_sum  Te4Mo4S4
_cell_volume  263.6947291360744
_cell_formula_units_Z  4
loop_
  _symmetry_equiv_pos_site_id
 _symmetry_equiv_pos_as_xyz
 1  'x, y, z'
loop_
 _atom_site_type_symbol
 _atom_site_label
 _atom_site_symmetry_multiplicity
 _atom_site_fract_x
 _atom_site_fract_y
 _atom_site_fract_z
 _atom_site_fract_occupancy
 Mo  Mo1  1  0.33332  0.38871  0.66656  1
 Mo  Mo2  1  0.66666  0.13889  0.33329  1
 Mo  Mo3  1  0.33334  0.86111  0.66672  1
 Mo  Mo4  1  0.66668  0.61129  0.33344  1
 S  S1  1  0.33333  0.19416  0.66661  1
 S  S2  1  0.66666  0.44359  0.33322  1
 S  S3  1  0.66667  0.80584  0.33339  1
 S  S4  1  0.33334  0.55641  0.66678  1
 Te  Te1  1  0.66666  0.31687  0.33323  1
 Te  Te2  1  0.33333  0.06712  0.66664  1
 Te  Te3  1  0.33334  0.68313  0.66677  1
 Te  Te4  1  0.66667  0.93288  0.33337  1
