CIF file written using JARVIS-Tools package.
data_Li2FeNiO4
_symmetry_space_group_name_H-M  'I-4m2'
_cell_length_a       4.99711
_cell_length_b       4.99711
_cell_length_c       4.99711
_cell_angle_alpha    132.362
_cell_angle_beta     132.362
_cell_angle_gamma    69.6585

_symmetry_Int_Tables_number  119
_chemical_formula_structural  Li2FeNiO4
_chemical_formula_sum  Li2FeNiO4
_cell_volume  66.82352859927673
_cell_formula_units_Z  1
loop_
  _symmetry_equiv_pos_site_id
 _symmetry_equiv_pos_as_xyz
 1  'x, y, z'
loop_
 _atom_site_type_symbol
 _atom_site_label
 _atom_site_symmetry_multiplicity
 _atom_site_fract_x
 _atom_site_fract_y
 _atom_site_fract_z
 _atom_site_fract_occupancy
 Fe  Fe1  1  0.75000  0.25000  0.50000  1
 Li  Li1  1  0.25000  0.75000  0.50000  1
 Li  Li2  1  0.50000  0.50000  0.00000  1
 Ni  Ni1  1  0.00000  0.00000  0.00000  1
 O  O1  1  0.51999  0.01999  0.50000  1
 O  O2  1  0.23527  0.23527  -0.00000  1
 O  O3  1  0.98001  0.48001  0.50000  1
 O  O4  1  0.76473  0.76473  0.00000  1
