CIF file written using JARVIS-Tools package.
data_LiFeO3
_symmetry_space_group_name_H-M  'Pnna'
_cell_length_a       4.75623
_cell_length_b       4.80559
_cell_length_c       7.97565
_cell_angle_alpha    90
_cell_angle_beta     90
_cell_angle_gamma    90

_symmetry_Int_Tables_number  52
_chemical_formula_structural  LiFeO3
_chemical_formula_sum  Li4Fe4O2
_cell_volume  182.2952921390573
_cell_formula_units_Z  4
loop_
  _symmetry_equiv_pos_site_id
 _symmetry_equiv_pos_as_xyz
 1  'x, y, z'
loop_
 _atom_site_type_symbol
 _atom_site_label
 _atom_site_symmetry_multiplicity
 _atom_site_fract_x
 _atom_site_fract_y
 _atom_site_fract_z
 _atom_site_fract_occupancy
 Fe  Fe1  1  0.00000  0.00000  0.89817  1
 Fe  Fe2  1  0.50000  0.00000  0.58771  1
 Fe  Fe3  1  0.00000  0.50000  0.08771  1
 Fe  Fe4  1  0.50000  0.50000  0.39817  1
 Li  Li1  1  0.00000  0.00000  0.29809  1
 Li  Li2  1  0.50000  0.00000  0.18780  1
 Li  Li3  1  0.00000  0.50000  0.68780  1
 Li  Li4  1  0.50000  0.50000  0.79809  1
 O  O1  1  0.75000  0.84853  0.74295  1
 O  O2  1  0.29870  0.17772  0.41472  1
 O  O3  1  0.79870  0.82228  0.07117  1
 O  O4  1  0.29870  0.67772  0.57117  1
 O  O5  1  0.70130  0.82228  0.41472  1
 O  O6  1  0.70130  0.32228  0.57117  1
 O  O7  1  0.75000  0.34853  0.24295  1
 O  O8  1  0.79870  0.32228  0.91472  1
 O  O9  1  0.20130  0.67772  0.91472  1
 O  O10  1  0.20130  0.17772  0.07117  1
 O  O11  1  0.25000  0.65147  0.24295  1
 O  O12  1  0.25000  0.15147  0.74295  1
