CIF file written using JARVIS-Tools package.
data_Mg3Fe3O8
_symmetry_space_group_name_H-M  'R-3m'
_cell_length_a       5.88703
_cell_length_b       5.88703
_cell_length_c       5.88703
_cell_angle_alpha    59.9706
_cell_angle_beta     59.9706
_cell_angle_gamma    59.9706

_symmetry_Int_Tables_number  166
_chemical_formula_structural  Mg3Fe3O8
_chemical_formula_sum  Mg3Fe3O8
_cell_volume  144.17333226804007
_cell_formula_units_Z  1
loop_
  _symmetry_equiv_pos_site_id
 _symmetry_equiv_pos_as_xyz
 1  'x, y, z'
loop_
 _atom_site_type_symbol
 _atom_site_label
 _atom_site_symmetry_multiplicity
 _atom_site_fract_x
 _atom_site_fract_y
 _atom_site_fract_z
 _atom_site_fract_occupancy
 Fe  Fe1  1  0.99378  0.99378  0.99378  1
 Fe  Fe2  1  0.25622  0.25622  0.25622  1
 Fe  Fe3  1  0.62500  0.62500  0.62500  1
 Mg  Mg1  1  0.62500  0.12500  0.62500  1
 Mg  Mg2  1  0.62500  0.62500  0.12500  1
 Mg  Mg3  1  0.12500  0.62500  0.62500  1
 O  O1  1  0.85520  0.39316  0.39316  1
 O  O2  1  0.38278  0.38278  0.38278  1
 O  O3  1  0.39316  0.85520  0.39316  1
 O  O4  1  0.39316  0.39316  0.85520  1
 O  O5  1  0.85684  0.39480  0.85684  1
 O  O6  1  0.85684  0.85684  0.39480  1
 O  O7  1  0.39480  0.85684  0.85684  1
 O  O8  1  0.86722  0.86722  0.86722  1
