CIF file written using JARVIS-Tools package.
data_DyNbO4
_symmetry_space_group_name_H-M  'C2/m'
_cell_length_a       4.01459
_cell_length_b       7.08606
_cell_length_c       7.20746
_cell_angle_alpha    105.65
_cell_angle_beta     90.0217
_cell_angle_gamma    106.463

_symmetry_Int_Tables_number  12
_chemical_formula_structural  DyNbO4
_chemical_formula_sum  Dy2Nb2O8
_cell_volume  188.68328438557538
_cell_formula_units_Z  2
loop_
  _symmetry_equiv_pos_site_id
 _symmetry_equiv_pos_as_xyz
 1  'x, y, z'
loop_
 _atom_site_type_symbol
 _atom_site_label
 _atom_site_symmetry_multiplicity
 _atom_site_fract_x
 _atom_site_fract_y
 _atom_site_fract_z
 _atom_site_fract_occupancy
 Dy  Dy1  1  0.79990  0.60767  0.21141  1
 Dy  Dy2  1  0.19064  0.38964  0.78801  1
 Nb  Nb1  1  0.89750  0.80276  0.79394  1
 Nb  Nb2  1  0.09291  0.19455  0.20548  1
 O  O1  1  0.94584  0.89997  0.13123  1
 O  O2  1  0.86185  0.73255  0.52705  1
 O  O3  1  0.23633  0.48063  0.13850  1
 O  O4  1  0.37171  0.75174  0.81034  1
 O  O5  1  0.61882  0.24555  0.18905  1
 O  O6  1  0.75421  0.51668  0.86092  1
 O  O7  1  0.12876  0.26484  0.47237  1
 O  O8  1  0.04471  0.09734  0.86819  1
