CIF file written using JARVIS-Tools package.
data_VCl3
_symmetry_space_group_name_H-M  'R-3'
_cell_length_a       6.7052
_cell_length_b       6.70519
_cell_length_c       6.7052
_cell_angle_alpha    53.2291
_cell_angle_beta     53.2292
_cell_angle_gamma    53.2291

_symmetry_Int_Tables_number  148
_chemical_formula_structural  VCl3
_chemical_formula_sum  V2Cl6
_cell_volume  179.3622909189621
_cell_formula_units_Z  2
loop_
  _symmetry_equiv_pos_site_id
 _symmetry_equiv_pos_as_xyz
 1  'x, y, z'
loop_
 _atom_site_type_symbol
 _atom_site_label
 _atom_site_symmetry_multiplicity
 _atom_site_fract_x
 _atom_site_fract_y
 _atom_site_fract_z
 _atom_site_fract_occupancy
 Cl  Cl1  1  0.57088  0.27080  0.92134  1
 Cl  Cl2  1  0.27080  0.92134  0.57088  1
 Cl  Cl3  1  0.07866  0.42912  0.72920  1
 Cl  Cl4  1  0.72920  0.07866  0.42912  1
 Cl  Cl5  1  0.42912  0.72920  0.07866  1
 Cl  Cl6  1  0.92134  0.57088  0.27080  1
 V  V1  1  0.66664  0.66664  0.66664  1
 V  V2  1  0.33336  0.33336  0.33336  1
