CIF file written using JARVIS-Tools package.
data_V2O3F
_symmetry_space_group_name_H-M  'C2'
_cell_length_a       7.0216
_cell_length_b       5.49311
_cell_length_c       5.49311
_cell_angle_alpha    76.1412
_cell_angle_beta     71.9407
_cell_angle_gamma    71.9407

_symmetry_Int_Tables_number  5
_chemical_formula_structural  V2O3F
_chemical_formula_sum  V6O9F3
_cell_volume  189.08402079705672
_cell_formula_units_Z  3
loop_
  _symmetry_equiv_pos_site_id
 _symmetry_equiv_pos_as_xyz
 1  'x, y, z'
loop_
 _atom_site_type_symbol
 _atom_site_label
 _atom_site_symmetry_multiplicity
 _atom_site_fract_x
 _atom_site_fract_y
 _atom_site_fract_z
 _atom_site_fract_occupancy
 F  F1  1  0.00000  0.29360  0.70640  1
 F  F2  1  0.33495  0.37163  0.96235  1
 F  F3  1  0.66505  0.03765  0.62837  1
 O  O1  1  0.03387  0.76712  0.76979  1
 O  O2  1  0.96613  0.23021  0.23288  1
 O  O3  1  0.63457  0.56764  0.56645  1
 O  O4  1  0.70151  0.10140  0.09711  1
 O  O5  1  0.29849  0.90289  0.89860  1
 O  O6  1  0.36543  0.43355  0.43236  1
 O  O7  1  0.66480  0.63861  0.03296  1
 O  O8  1  -0.00000  0.69200  0.30800  1
 O  O9  1  0.33520  0.96704  0.36139  1
 V  V1  1  -0.00000  0.96128  0.03872  1
 V  V2  1  0.50000  0.98290  0.01710  1
 V  V3  1  0.16639  0.32950  0.33355  1
 V  V4  1  0.33602  0.69350  0.63695  1
 V  V5  1  0.66398  0.36305  0.30650  1
 V  V6  1  0.83361  0.66645  0.67050  1
