CIF file written using JARVIS-Tools package.
data_Sb2S3
_symmetry_space_group_name_H-M  'Pnma'
_cell_length_a       3.88991
_cell_length_b       11.199
_cell_length_c       11.4723
_cell_angle_alpha    90
_cell_angle_beta     90
_cell_angle_gamma    90

_symmetry_Int_Tables_number  62
_chemical_formula_structural  Sb2S3
_chemical_formula_sum  Sb8S2
_cell_volume  499.77220767369744
_cell_formula_units_Z  4
loop_
  _symmetry_equiv_pos_site_id
 _symmetry_equiv_pos_as_xyz
 1  'x, y, z'
loop_
 _atom_site_type_symbol
 _atom_site_label
 _atom_site_symmetry_multiplicity
 _atom_site_fract_x
 _atom_site_fract_y
 _atom_site_fract_z
 _atom_site_fract_occupancy
 S  S1  1  0.25000  0.69208  0.79207  1
 S  S2  1  0.75000  0.55934  0.37584  1
 S  S3  1  0.75000  0.19208  0.70793  1
 S  S4  1  0.25000  0.05934  0.12416  1
 S  S5  1  0.75000  0.94066  0.87584  1
 S  S6  1  0.25000  0.44066  0.62416  1
 S  S7  1  0.25000  0.12515  0.45021  1
 S  S8  1  0.25000  0.37485  0.95021  1
 S  S9  1  0.75000  0.62515  0.04979  1
 S  S10  1  0.25000  0.80792  0.29207  1
 S  S11  1  0.75000  0.30792  0.20793  1
 S  S12  1  0.75000  0.87485  0.54979  1
 Sb  Sb1  1  0.25000  0.82677  0.97435  1
 Sb  Sb2  1  0.75000  0.17323  0.02565  1
 Sb  Sb3  1  0.75000  0.32677  0.52565  1
 Sb  Sb4  1  0.25000  0.67323  0.47435  1
 Sb  Sb5  1  0.75000  0.53533  0.84975  1
 Sb  Sb6  1  0.25000  0.46467  0.15025  1
 Sb  Sb7  1  0.25000  0.03533  0.65025  1
 Sb  Sb8  1  0.75000  0.96467  0.34975  1
