CIF file written using JARVIS-Tools package.
data_MgAgF3
_symmetry_space_group_name_H-M  'R-3c'
_cell_length_a       5.57224
_cell_length_b       5.57225
_cell_length_c       5.57261
_cell_angle_alpha    60.0022
_cell_angle_beta     60.0022
_cell_angle_gamma    60

_symmetry_Int_Tables_number  167
_chemical_formula_structural  MgAgF3
_chemical_formula_sum  Mg2Ag2F6
_cell_volume  122.35385129797447
_cell_formula_units_Z  2
loop_
  _symmetry_equiv_pos_site_id
 _symmetry_equiv_pos_as_xyz
 1  'x, y, z'
loop_
 _atom_site_type_symbol
 _atom_site_label
 _atom_site_symmetry_multiplicity
 _atom_site_fract_x
 _atom_site_fract_y
 _atom_site_fract_z
 _atom_site_fract_occupancy
 Ag  Ag1  1  0.25570  0.25570  0.23290  1
 Ag  Ag2  1  0.75570  0.75570  0.73290  1
 F  F1  1  0.69265  0.81875  0.23291  1
 F  F2  1  0.25570  0.69265  0.23291  1
 F  F3  1  0.81875  0.25570  0.23291  1
 F  F4  1  0.75570  0.31875  0.73291  1
 F  F5  1  0.31875  0.19265  0.73291  1
 F  F6  1  0.19265  0.75570  0.73291  1
 Mg  Mg1  1  0.00571  0.00571  0.98288  1
 Mg  Mg2  1  0.50571  0.50571  0.48288  1
