data_image0
_chemical_formula_structural       Ge4La2
_chemical_formula_sum              "Ge4 La2"
_cell_length_a       4.30904
_cell_length_b       4.30904
_cell_length_c       8.41057
_cell_angle_alpha    104.843
_cell_angle_beta     104.843
_cell_angle_gamma    90

_space_group_name_H-M_alt    "P 1"
_space_group_IT_number       1

loop_
  _space_group_symop_operation_xyz
  'x, y, z'

loop_
  _atom_site_type_symbol
  _atom_site_label
  _atom_site_symmetry_multiplicity
  _atom_site_fract_x
  _atom_site_fract_y
  _atom_site_fract_z
  _atom_site_occupancy
  Ge  Ge1       1.0  0.58200  0.58200  0.16400  1.0000
  Ge  Ge2       1.0  0.66800  0.16800  0.33600  1.0000
  Ge  Ge3       1.0  0.83200  0.33200  0.66400  1.0000
  Ge  Ge4       1.0  0.41800  0.41800  0.83600  1.0000
  La  La1       1.0  0.00000  0.00000  0.00000  1.0000
  La  La2       1.0  0.25000  0.75000  0.50000  1.0000
