CIF file written using JARVIS-Tools package.
data_HfCoO3
_symmetry_space_group_name_H-M  'Pnma'
_cell_length_a       5.3853
_cell_length_b       5.37583
_cell_length_c       7.78532
_cell_angle_alpha    90
_cell_angle_beta     90
_cell_angle_gamma    90

_symmetry_Int_Tables_number  62
_chemical_formula_structural  HfCoO3
_chemical_formula_sum  Hf4Co4O2
_cell_volume  225.38841812903883
_cell_formula_units_Z  4
loop_
  _symmetry_equiv_pos_site_id
 _symmetry_equiv_pos_as_xyz
 1  'x, y, z'
loop_
 _atom_site_type_symbol
 _atom_site_label
 _atom_site_symmetry_multiplicity
 _atom_site_fract_x
 _atom_site_fract_y
 _atom_site_fract_z
 _atom_site_fract_occupancy
 Co  Co1  1  0.01757  0.02748  0.25000  1
 Co  Co2  1  0.51757  0.47252  0.75000  1
 Co  Co3  1  0.48243  0.52748  0.25000  1
 Co  Co4  1  0.98243  0.97252  0.75000  1
 Hf  Hf1  1  0.50000  0.00000  0.00000  1
 Hf  Hf2  1  0.50000  0.00000  0.50000  1
 Hf  Hf3  1  0.00000  0.50000  0.00000  1
 Hf  Hf4  1  0.00000  0.50000  0.50000  1
 O  O1  1  0.62270  0.09033  0.75000  1
 O  O2  1  0.83711  0.83510  0.43150  1
 O  O3  1  0.16289  0.16490  0.93150  1
 O  O4  1  0.66289  0.33510  0.06850  1
 O  O5  1  0.16289  0.16490  0.56850  1
 O  O6  1  0.33711  0.66490  0.93150  1
 O  O7  1  0.87730  0.59033  0.75000  1
 O  O8  1  0.33711  0.66490  0.56850  1
 O  O9  1  0.66289  0.33510  0.43150  1
 O  O10  1  0.83711  0.83510  0.06850  1
 O  O11  1  0.12270  0.40967  0.25000  1
 O  O12  1  0.37730  0.90967  0.25000  1
