CIF file written using JARVIS-Tools package.
data_Li2MnO2F
_symmetry_space_group_name_H-M  'P1'
_cell_length_a       5.02216
_cell_length_b       5.02709
_cell_length_c       5.15862
_cell_angle_alpha    101.33
_cell_angle_beta     101.403
_cell_angle_gamma    118.013

_symmetry_Int_Tables_number  1
_chemical_formula_structural  Li2MnO2F
_chemical_formula_sum  Li4Mn2O4F2
_cell_volume  106.22537838485881
_cell_formula_units_Z  2
loop_
  _symmetry_equiv_pos_site_id
 _symmetry_equiv_pos_as_xyz
 1  'x, y, z'
loop_
 _atom_site_type_symbol
 _atom_site_label
 _atom_site_symmetry_multiplicity
 _atom_site_fract_x
 _atom_site_fract_y
 _atom_site_fract_z
 _atom_site_fract_occupancy
 F  F1  1  0.18286  0.34502  0.74522  1
 F  F2  1  0.63930  0.79995  0.23823  1
 Li  Li1  1  0.41175  0.57045  0.49131  1
 Li  Li2  1  0.72357  0.25972  0.49120  1
 Li  Li3  1  0.58331  0.40038  0.99056  1
 Li  Li4  1  0.23446  0.74838  0.99155  1
 Mn  Mn1  1  0.09676  0.88566  0.49128  1
 Mn  Mn2  1  0.90281  0.08049  0.99122  1
 O  O1  1  0.27233  0.12026  0.25639  1
 O  O2  1  0.51107  0.00578  0.74332  1
 O  O3  1  0.86234  0.71070  0.72663  1
 O  O4  1  0.97703  0.47081  0.23870  1
