CIF file written using JARVIS-Tools package.
data_Sb2H8PtO4F12
_symmetry_space_group_name_H-M  'P-1'
_cell_length_a       4.97214
_cell_length_b       7.86036
_cell_length_c       8.54685
_cell_angle_alpha    69.5771
_cell_angle_beta     84.1236
_cell_angle_gamma    75.2128

_symmetry_Int_Tables_number  2
_chemical_formula_structural  Sb2H8PtO4F12
_chemical_formula_sum  Sb2H8PtO4F2
_cell_volume  302.63784417556155
_cell_formula_units_Z  1
loop_
  _symmetry_equiv_pos_site_id
 _symmetry_equiv_pos_as_xyz
 1  'x, y, z'
loop_
 _atom_site_type_symbol
 _atom_site_label
 _atom_site_symmetry_multiplicity
 _atom_site_fract_x
 _atom_site_fract_y
 _atom_site_fract_z
 _atom_site_fract_occupancy
 F  F1  1  0.78106  0.62415  0.88020  1
 F  F2  1  0.63112  0.46591  0.23190  1
 F  F3  1  0.21894  0.37585  0.11980  1
 F  F4  1  0.36888  0.53410  0.76810  1
 F  F5  1  0.51891  0.70791  0.44377  1
 F  F6  1  0.40304  0.89614  0.67081  1
 F  F7  1  0.06979  0.20381  0.44070  1
 F  F8  1  0.93020  0.79619  0.55930  1
 F  F9  1  0.48110  0.29209  0.55623  1
 F  F10  1  0.10438  0.56912  0.33449  1
 F  F11  1  0.89562  0.43088  0.66551  1
 F  F12  1  0.59696  0.10386  0.32919  1
 H  H1  1  0.16242  0.29003  0.80744  1
 H  H2  1  0.76036  0.13903  0.70406  1
 H  H3  1  0.05216  0.99041  0.70040  1
 H  H4  1  0.94784  0.00959  0.29960  1
 H  H5  1  0.23964  0.86097  0.29594  1
 H  H6  1  0.83758  0.70997  0.19256  1
 H  H7  1  0.74695  0.75084  0.00706  1
 H  H8  1  0.25305  0.24916  0.99294  1
 O  O1  1  0.75781  0.81223  0.09004  1
 O  O2  1  0.88832  0.02235  0.77054  1
 O  O3  1  0.24219  0.18777  0.90996  1
 O  O4  1  0.11168  0.97765  0.22946  1
 Pt  Pt1  1  0.00000  0.00000  0.00000  1
 Sb  Sb1  1  0.64769  0.66546  0.66239  1
 Sb  Sb2  1  0.35231  0.33454  0.33761  1
