CIF file written using JARVIS-Tools package.
data_LiCo2O4
_symmetry_space_group_name_H-M  'R3m'
_cell_length_a       5.68788
_cell_length_b       5.68789
_cell_length_c       5.68788
_cell_angle_alpha    59.7535
_cell_angle_beta     59.7534
_cell_angle_gamma    59.7534

_symmetry_Int_Tables_number  160
_chemical_formula_structural  LiCo2O4
_chemical_formula_sum  Li2Co4O8
_cell_volume  129.38925823273672
_cell_formula_units_Z  2
loop_
  _symmetry_equiv_pos_site_id
 _symmetry_equiv_pos_as_xyz
 1  'x, y, z'
loop_
 _atom_site_type_symbol
 _atom_site_label
 _atom_site_symmetry_multiplicity
 _atom_site_fract_x
 _atom_site_fract_y
 _atom_site_fract_z
 _atom_site_fract_occupancy
 Co  Co1  1  0.00738  0.49857  0.49857  1
 Co  Co2  1  0.49857  0.49857  0.00738  1
 Co  Co3  1  0.49857  0.00738  0.49857  1
 Co  Co4  1  0.88033  0.88033  0.88033  1
 Li  Li1  1  0.12194  0.12194  0.12194  1
 Li  Li2  1  0.49771  0.49771  0.49771  1
 O  O1  1  0.26274  0.26274  0.26274  1
 O  O2  1  0.25043  0.71265  0.25043  1
 O  O3  1  0.25043  0.25043  0.71265  1
 O  O4  1  0.71265  0.25043  0.25043  1
 O  O5  1  0.27978  0.74911  0.74911  1
 O  O6  1  0.74911  0.74911  0.27978  1
 O  O7  1  0.74911  0.27978  0.74911  1
 O  O8  1  0.74123  0.74123  0.74123  1
