CIF file written using JARVIS-Tools package.
data_MgSiO3
_symmetry_space_group_name_H-M  'Pbcn'
_cell_length_a       5.36236
_cell_length_b       8.77315
_cell_length_c       9.3426
_cell_angle_alpha    90
_cell_angle_beta     90
_cell_angle_gamma    90

_symmetry_Int_Tables_number  60
_chemical_formula_structural  MgSiO3
_chemical_formula_sum  Mg8Si8O24
_cell_volume  439.5205107326578
_cell_formula_units_Z  8
loop_
  _symmetry_equiv_pos_site_id
 _symmetry_equiv_pos_as_xyz
 1  'x, y, z'
loop_
 _atom_site_type_symbol
 _atom_site_label
 _atom_site_symmetry_multiplicity
 _atom_site_fract_x
 _atom_site_fract_y
 _atom_site_fract_z
 _atom_site_fract_occupancy
 Mg  Mg1  1  0.25000  0.90430  0.00000  1
 Mg  Mg2  1  0.75000  0.59570  0.50000  1
 Mg  Mg3  1  0.75000  0.09570  0.00000  1
 Mg  Mg4  1  0.25000  0.40430  0.50000  1
 Mg  Mg5  1  0.75000  0.73692  0.00000  1
 Mg  Mg6  1  0.25000  0.76308  0.50000  1
 Mg  Mg7  1  0.25000  0.26308  0.00000  1
 Mg  Mg8  1  0.75000  0.23692  0.50000  1
 O  O1  1  0.56985  0.74927  0.62260  1
 O  O2  1  0.06985  0.25073  0.62260  1
 O  O3  1  0.28841  0.97378  0.65009  1
 O  O4  1  0.43015  0.25073  0.37740  1
 O  O5  1  0.93015  0.24927  0.12260  1
 O  O6  1  0.71159  0.02622  0.34991  1
 O  O7  1  0.42140  0.09400  0.11780  1
 O  O8  1  0.78841  0.02622  0.65009  1
 O  O9  1  0.28841  0.47378  0.84991  1
 O  O10  1  0.43015  0.75073  0.12260  1
 O  O11  1  0.78841  0.52622  0.84991  1
 O  O12  1  0.21159  0.97378  0.34991  1
 O  O13  1  0.71159  0.52622  0.15009  1
 O  O14  1  0.21159  0.47378  0.15009  1
 O  O15  1  0.93015  0.74927  0.37740  1
 O  O16  1  0.07860  0.59400  0.61780  1
 O  O17  1  0.42140  0.59400  0.38220  1
 O  O18  1  0.57860  0.90600  0.88220  1
 O  O19  1  0.56985  0.24927  0.87740  1
 O  O20  1  0.07860  0.09400  0.88220  1
 O  O21  1  0.57860  0.40600  0.61780  1
 O  O22  1  0.06985  0.75073  0.87740  1
 O  O23  1  0.92140  0.90600  0.11780  1
 O  O24  1  0.92140  0.40600  0.38220  1
 Si  Si1  1  0.06632  0.59160  0.79222  1
 Si  Si2  1  0.93368  0.90840  0.29222  1
 Si  Si3  1  0.43368  0.59160  0.20778  1
 Si  Si4  1  0.56632  0.90840  0.70778  1
 Si  Si5  1  0.56632  0.40840  0.79222  1
 Si  Si6  1  0.06632  0.09160  0.70778  1
 Si  Si7  1  0.43368  0.09160  0.29222  1
 Si  Si8  1  0.93368  0.40840  0.20778  1
