CIF file written using JARVIS-Tools package.
data_LiAgF4
_symmetry_space_group_name_H-M  'C2/c'
_cell_length_a       6.47381
_cell_length_b       5.94929
_cell_length_c       10.0815
_cell_angle_alpha    90
_cell_angle_beta     143.512
_cell_angle_gamma    117.354

_symmetry_Int_Tables_number  15
_chemical_formula_structural  LiAgF4
_chemical_formula_sum  Li2Ag2F8
_cell_volume  146.56672889280367
_cell_formula_units_Z  2
loop_
  _symmetry_equiv_pos_site_id
 _symmetry_equiv_pos_as_xyz
 1  'x, y, z'
loop_
 _atom_site_type_symbol
 _atom_site_label
 _atom_site_symmetry_multiplicity
 _atom_site_fract_x
 _atom_site_fract_y
 _atom_site_fract_z
 _atom_site_fract_occupancy
 Ag  Ag1  1  -0.00031  0.49984  0.49831  1
 Ag  Ag2  1  -0.00031  0.49986  0.99831  1
 F  F1  1  0.37161  0.53917  0.04276  1
 F  F2  1  0.41449  0.09036  0.08444  1
 F  F3  1  0.37161  0.83244  0.54276  1
 F  F4  1  0.41449  0.32413  0.58444  1
 F  F5  1  0.58490  0.90934  0.91218  1
 F  F6  1  0.62772  0.46050  0.95384  1
 F  F7  1  0.58490  0.67556  0.41218  1
 F  F8  1  0.62773  0.16723  0.45384  1
 Li  Li1  1  -0.00033  0.07712  0.74830  1
 Li  Li2  1  -0.00033  0.92255  0.24830  1
