CIF file written using JARVIS-Tools package.
data_Li2VO3F
_symmetry_space_group_name_H-M  'P1'
_cell_length_a       5.01107
_cell_length_b       5.16599
_cell_length_c       5.71673
_cell_angle_alpha    92.1294
_cell_angle_beta     91.4892
_cell_angle_gamma    112.334

_symmetry_Int_Tables_number  1
_chemical_formula_structural  Li2VO3F
_chemical_formula_sum  Li4V2O6F2
_cell_volume  136.66465270068022
_cell_formula_units_Z  2
loop_
  _symmetry_equiv_pos_site_id
 _symmetry_equiv_pos_as_xyz
 1  'x, y, z'
loop_
 _atom_site_type_symbol
 _atom_site_label
 _atom_site_symmetry_multiplicity
 _atom_site_fract_x
 _atom_site_fract_y
 _atom_site_fract_z
 _atom_site_fract_occupancy
 F  F1  1  0.97823  0.24020  0.36476  1
 F  F2  1  0.02511  0.74411  0.63284  1
 Li  Li1  1  0.82122  0.47423  0.87460  1
 Li  Li2  1  0.76315  0.48804  0.37716  1
 Li  Li3  1  0.27698  0.52653  0.60005  1
 Li  Li4  1  0.23392  0.01076  0.37674  1
 O  O1  1  0.96740  0.78357  0.11177  1
 O  O2  1  0.51781  0.22012  0.11913  1
 O  O3  1  0.47136  0.25431  0.64985  1
 O  O4  1  0.50785  0.75495  0.35760  1
 O  O5  1  0.46566  0.78323  0.89015  1
 O  O6  1  0.01874  0.21795  0.89183  1
 V  V1  1  0.69646  0.92596  0.13482  1
 V  V2  1  0.27138  0.07141  0.87193  1
