CIF file written using JARVIS-Tools package.
data_Li2FeSi2O6
_symmetry_space_group_name_H-M  'C2/c'
_cell_length_a       5.6388
_cell_length_b       5.6388
_cell_length_c       9.20656
_cell_angle_alpha    90.5525
_cell_angle_beta     89.4475
_cell_angle_gamma    61.7979

_symmetry_Int_Tables_number  15
_chemical_formula_structural  Li2FeSi2O6
_chemical_formula_sum  Li4Fe2Si4O2
_cell_volume  257.93542699020037
_cell_formula_units_Z  2
loop_
  _symmetry_equiv_pos_site_id
 _symmetry_equiv_pos_as_xyz
 1  'x, y, z'
loop_
 _atom_site_type_symbol
 _atom_site_label
 _atom_site_symmetry_multiplicity
 _atom_site_fract_x
 _atom_site_fract_y
 _atom_site_fract_z
 _atom_site_fract_occupancy
 Fe  Fe1  1  0.24937  0.24937  0.75000  1
 Fe  Fe2  1  0.75063  0.75063  0.25000  1
 Li  Li1  1  0.60667  0.71979  0.88122  1
 Li  Li2  1  0.28021  0.39333  0.38122  1
 Li  Li3  1  0.71979  0.60667  0.61878  1
 Li  Li4  1  0.39333  0.28021  0.11878  1
 O  O1  1  0.85327  0.36784  0.79240  1
 O  O2  1  0.14673  0.63216  0.20760  1
 O  O3  1  0.24087  0.48303  0.58582  1
 O  O4  1  0.51697  0.75913  0.08582  1
 O  O5  1  0.36784  0.85327  0.70760  1
 O  O6  1  -0.00000  0.00000  0.50000  1
 O  O7  1  0.12239  0.12239  0.25000  1
 O  O8  1  0.75913  0.51697  0.41418  1
 O  O9  1  0.48303  0.24087  0.91418  1
 O  O10  1  0.87761  0.87761  0.75000  1
 O  O11  1  0.00000  0.00000  0.00000  1
 O  O12  1  0.63216  0.14673  0.29240  1
 Si  Si1  1  0.86283  0.20471  0.36606  1
 Si  Si2  1  0.79529  0.13717  0.86606  1
 Si  Si3  1  0.20471  0.86283  0.13394  1
 Si  Si4  1  0.13717  0.79529  0.63394  1
