CIF file written using JARVIS-Tools package.
data_Li5SbS
_symmetry_space_group_name_H-M  'Pnma'
_cell_length_a       6.11099
_cell_length_b       9.69472
_cell_length_c       8.12722
_cell_angle_alpha    90
_cell_angle_beta     89.9991
_cell_angle_gamma    90

_symmetry_Int_Tables_number  62
_chemical_formula_structural  Li5SbS
_chemical_formula_sum  Li20Sb4S4
_cell_volume  481.4920848288477
_cell_formula_units_Z  4
loop_
  _symmetry_equiv_pos_site_id
 _symmetry_equiv_pos_as_xyz
 1  'x, y, z'
loop_
 _atom_site_type_symbol
 _atom_site_label
 _atom_site_symmetry_multiplicity
 _atom_site_fract_x
 _atom_site_fract_y
 _atom_site_fract_z
 _atom_site_fract_occupancy
 Li  Li1  1  -0.00017  0.16539  0.42601  1
 Li  Li2  1  0.26466  0.93820  0.58875  1
 Li  Li3  1  0.25553  0.22786  0.69919  1
 Li  Li4  1  0.23534  0.27629  0.08877  1
 Li  Li5  1  0.24463  0.48669  0.80065  1
 Li  Li6  1  0.23600  0.77649  0.91072  1
 Li  Li7  1  0.26397  0.43798  0.41068  1
 Li  Li8  1  0.50009  0.04908  0.92594  1
 Li  Li9  1  0.24454  0.98667  0.19924  1
 Li  Li10  1  0.76466  0.77629  0.91123  1
 Li  Li11  1  0.25534  0.72784  0.30061  1
 Li  Li12  1  0.75546  0.48667  0.80076  1
 Li  Li13  1  0.49991  0.54908  0.07406  1
 Li  Li14  1  0.75537  0.98669  0.19935  1
 Li  Li15  1  0.74466  0.22784  0.69939  1
 Li  Li16  1  0.73603  0.93798  0.58932  1
 Li  Li17  1  0.00017  0.66539  0.57399  1
 Li  Li18  1  0.73534  0.43820  0.41125  1
 Li  Li19  1  0.74447  0.72786  0.30081  1
 Li  Li20  1  0.76400  0.27649  0.08928  1
 S  S1  1  0.50002  0.81987  0.10717  1
 S  S2  1  0.49998  0.31987  0.89283  1
 S  S3  1  0.99999  0.39465  0.60719  1
 S  S4  1  0.00001  0.89465  0.39281  1
 Sb  Sb1  1  0.00010  0.03159  0.88245  1
 Sb  Sb2  1  0.50007  0.68290  0.61751  1
 Sb  Sb3  1  0.49993  0.18290  0.38249  1
 Sb  Sb4  1  -0.00010  0.53159  0.11755  1
