CIF file written using JARVIS-Tools package.
data_DyNbO4
_symmetry_space_group_name_H-M  'I4_1/amd'
_cell_length_a       6.15578
_cell_length_b       6.15578
_cell_length_c       6.15578
_cell_angle_alpha    107.279
_cell_angle_beta     107.279
_cell_angle_gamma    113.952

_symmetry_Int_Tables_number  141
_chemical_formula_structural  DyNbO4
_chemical_formula_sum  Dy2Nb2O8
_cell_volume  178.73754486281146
_cell_formula_units_Z  2
loop_
  _symmetry_equiv_pos_site_id
 _symmetry_equiv_pos_as_xyz
 1  'x, y, z'
loop_
 _atom_site_type_symbol
 _atom_site_label
 _atom_site_symmetry_multiplicity
 _atom_site_fract_x
 _atom_site_fract_y
 _atom_site_fract_z
 _atom_site_fract_occupancy
 Dy  Dy1  1  0.62500  0.37500  0.25000  1
 Dy  Dy2  1  0.37500  0.62500  0.75000  1
 Nb  Nb1  1  0.87500  0.12500  0.75000  1
 Nb  Nb2  1  0.12500  0.87500  0.25000  1
 O  O1  1  0.69116  0.13421  0.94305  1
 O  O2  1  0.25189  0.30884  0.94305  1
 O  O3  1  0.86579  0.30884  0.55695  1
 O  O4  1  0.69116  0.74811  0.55695  1
 O  O5  1  0.30884  0.25189  0.44305  1
 O  O6  1  0.74811  0.69116  0.05695  1
 O  O7  1  0.13421  0.69116  0.44305  1
 O  O8  1  0.30884  0.86579  0.05695  1
