CIF file written using JARVIS-Tools package.
data_LiV2O2F3
_symmetry_space_group_name_H-M  'C2/m'
_cell_length_a       3.85594
_cell_length_b       5.26814
_cell_length_c       10.0354
_cell_angle_alpha    90.0138
_cell_angle_beta     90.0008
_cell_angle_gamma    111.465

_symmetry_Int_Tables_number  12
_chemical_formula_structural  LiV2O2F3
_chemical_formula_sum  Li2V4O4F6
_cell_volume  189.71657259647665
_cell_formula_units_Z  2
loop_
  _symmetry_equiv_pos_site_id
 _symmetry_equiv_pos_as_xyz
 1  'x, y, z'
loop_
 _atom_site_type_symbol
 _atom_site_label
 _atom_site_symmetry_multiplicity
 _atom_site_fract_x
 _atom_site_fract_y
 _atom_site_fract_z
 _atom_site_fract_occupancy
 F  F1  1  0.04542  0.08864  0.87979  1
 F  F2  1  0.69278  0.38317  0.09511  1
 F  F3  1  0.26756  0.53271  0.26105  1
 F  F4  1  0.73390  0.46530  0.73723  1
 F  F5  1  0.30853  0.61471  0.90320  1
 F  F6  1  0.95579  0.90928  0.11845  1
 Li  Li1  1  0.13352  0.26474  0.04955  1
 Li  Li2  1  0.86773  0.73324  0.94870  1
 O  O1  1  0.04407  0.08560  0.61681  1
 O  O2  1  0.69080  0.37911  0.42143  1
 O  O3  1  0.31068  0.61886  0.57683  1
 O  O4  1  0.95742  0.91236  0.38145  1
 V  V1  1  0.13897  0.27543  0.44940  1
 V  V2  1  0.18584  0.36920  0.74388  1
 V  V3  1  0.81558  0.62876  0.25438  1
 V  V4  1  0.86252  0.72254  0.54886  1
