CIF file written using JARVIS-Tools package.
data_Li3FeCo3O8
_symmetry_space_group_name_H-M  'R-3m'
_cell_length_a       5.71201
_cell_length_b       5.66396
_cell_length_c       5.66396
_cell_angle_alpha    60
_cell_angle_beta     60.2778
_cell_angle_gamma    90

_symmetry_Int_Tables_number  166
_chemical_formula_structural  Li3FeCo3O8
_chemical_formula_sum  Li3FeCo3O8
_cell_volume  130.11458878492414
_cell_formula_units_Z  1
loop_
  _symmetry_equiv_pos_site_id
 _symmetry_equiv_pos_as_xyz
 1  'x, y, z'
loop_
 _atom_site_type_symbol
 _atom_site_label
 _atom_site_symmetry_multiplicity
 _atom_site_fract_x
 _atom_site_fract_y
 _atom_site_fract_z
 _atom_site_fract_occupancy
 Co  Co1  1  -0.00000  -0.00000  0.50000  1
 Co  Co2  1  -0.00000  0.50000  -0.00000  1
 Co  Co3  1  -0.00000  0.50000  0.50000  1
 Fe  Fe1  1  0.00000  0.00000  0.00000  1
 Li  Li1  1  0.50000  -0.00000  -0.00000  1
 Li  Li2  1  0.50000  -0.00000  0.50000  1
 Li  Li3  1  0.50000  0.50000  0.50000  1
 O  O1  1  0.21172  0.23488  0.02316  1
 O  O2  1  0.21172  0.23488  0.53025  1
 O  O3  1  0.21172  0.74197  0.02316  1
 O  O4  1  0.21838  0.73946  0.52108  1
 O  O5  1  0.78162  0.26054  0.47892  1
 O  O6  1  0.78828  0.25803  0.97684  1
 O  O7  1  0.78828  0.76512  0.46975  1
 O  O8  1  0.78828  0.76512  0.97684  1
