CIF file written using JARVIS-Tools package.
data_PtO3
_symmetry_space_group_name_H-M  'R-3c'
_cell_length_a       4.84956
_cell_length_b       5.07761
_cell_length_c       4.84957
_cell_angle_alpha    118.525
_cell_angle_beta     60
_cell_angle_gamma    118.525

_symmetry_Int_Tables_number  167
_chemical_formula_structural  PtO3
_chemical_formula_sum  Pt2O6
_cell_volume  86.27393123154073
_cell_formula_units_Z  2
loop_
  _symmetry_equiv_pos_site_id
 _symmetry_equiv_pos_as_xyz
 1  'x, y, z'
loop_
 _atom_site_type_symbol
 _atom_site_label
 _atom_site_symmetry_multiplicity
 _atom_site_fract_x
 _atom_site_fract_y
 _atom_site_fract_z
 _atom_site_fract_occupancy
 O  O1  1  0.25000  0.75000  0.57154  1
 O  O2  1  0.42846  0.25000  0.07154  1
 O  O3  1  0.07154  0.25000  0.75000  1
 O  O4  1  0.92846  0.75000  0.25000  1
 O  O5  1  0.57154  0.75000  0.92846  1
 O  O6  1  0.75000  0.25000  0.42846  1
 Pt  Pt1  1  0.00000  0.00000  0.00000  1
 Pt  Pt2  1  0.50000  0.50000  0.50000  1
