CIF file written using JARVIS-Tools package.
data_Li2MnO2F
_symmetry_space_group_name_H-M  'C2/c'
_cell_length_a       5.17055
_cell_length_b       5.07435
_cell_length_c       9.6698
_cell_angle_alpha    86.1449
_cell_angle_beta     97.5833
_cell_angle_gamma    120.629

_symmetry_Int_Tables_number  15
_chemical_formula_structural  Li2MnO2F
_chemical_formula_sum  Li8Mn4O8F4
_cell_volume  216.40206972835063
_cell_formula_units_Z  4
loop_
  _symmetry_equiv_pos_site_id
 _symmetry_equiv_pos_as_xyz
 1  'x, y, z'
loop_
 _atom_site_type_symbol
 _atom_site_label
 _atom_site_symmetry_multiplicity
 _atom_site_fract_x
 _atom_site_fract_y
 _atom_site_fract_z
 _atom_site_fract_occupancy
 F  F1  1  0.87268  0.52538  0.61408  1
 F  F2  1  0.12732  0.47462  0.38592  1
 F  F3  1  0.34730  0.47462  0.11408  1
 F  F4  1  0.65270  0.52538  0.88592  1
 Li  Li1  1  0.80488  0.12963  0.49259  1
 Li  Li2  1  0.93092  0.86183  0.75000  1
 Li  Li3  1  0.19512  0.87037  0.50741  1
 Li  Li4  1  0.50000  0.50000  0.50000  1
 Li  Li5  1  -0.00000  0.50000  -0.00000  1
 Li  Li6  1  0.06908  0.13817  0.25000  1
 Li  Li7  1  0.32476  0.12963  0.00741  1
 Li  Li8  1  0.67524  0.87037  0.99259  1
 Mn  Mn1  1  0.42079  0.84159  0.25000  1
 Mn  Mn2  1  0.25549  0.51097  0.75000  1
 Mn  Mn3  1  0.74451  0.48903  0.25000  1
 Mn  Mn4  1  0.57921  0.15841  0.75000  1
 O  O1  1  0.29863  0.82490  0.86886  1
 O  O2  1  0.52627  0.82490  0.63114  1
 O  O3  1  0.74381  0.80364  0.35320  1
 O  O4  1  0.47373  0.17510  0.36886  1
 O  O5  1  0.70137  0.17510  0.13114  1
 O  O6  1  0.94017  0.19636  0.85320  1
 O  O7  1  0.05983  0.80364  0.14680  1
 O  O8  1  0.25619  0.19636  0.64680  1
