CIF file written using JARVIS-Tools package.
data_Li2VNiO4
_symmetry_space_group_name_H-M  'Imma'
_cell_length_a       5.83045
_cell_length_b       5.83044
_cell_length_c       5.76
_cell_angle_alpha    119.604
_cell_angle_beta     119.604
_cell_angle_gamma    89.9459

_symmetry_Int_Tables_number  74
_chemical_formula_structural  Li2VNiO4
_chemical_formula_sum  Li4V2Ni2O8
_cell_volume  140.1586909302016
_cell_formula_units_Z  2
loop_
  _symmetry_equiv_pos_site_id
 _symmetry_equiv_pos_as_xyz
 1  'x, y, z'
loop_
 _atom_site_type_symbol
 _atom_site_label
 _atom_site_symmetry_multiplicity
 _atom_site_fract_x
 _atom_site_fract_y
 _atom_site_fract_z
 _atom_site_fract_occupancy
 Li  Li1  1  -0.00000  0.50000  0.50000  1
 Li  Li2  1  0.50000  0.50000  0.50000  1
 Li  Li3  1  0.50000  -0.00000  -0.00000  1
 Li  Li4  1  0.50000  0.50000  -0.00000  1
 Ni  Ni1  1  0.00000  0.50000  0.00000  1
 Ni  Ni2  1  0.50000  0.00000  0.50000  1
 O  O1  1  0.23224  0.76775  0.00528  1
 O  O2  1  0.23055  0.23660  0.48359  1
 O  O3  1  0.23225  0.76776  0.49472  1
 O  O4  1  0.76340  0.76945  0.01641  1
 O  O5  1  0.23660  0.23055  0.98359  1
 O  O6  1  0.76775  0.23224  0.50528  1
 O  O7  1  0.76945  0.76340  0.51641  1
 O  O8  1  0.76776  0.23225  0.99472  1
 V  V1  1  0.00000  0.00000  0.50000  1
 V  V2  1  0.00000  0.00000  0.00000  1
