CIF file written using JARVIS-Tools package.
data_Li3Co2Si2O8
_symmetry_space_group_name_H-M  'C2'
_cell_length_a       5.16463
_cell_length_b       5.16461
_cell_length_c       6.61771
_cell_angle_alpha    92.4611
_cell_angle_beta     92.4611
_cell_angle_gamma    88.3953

_symmetry_Int_Tables_number  5
_chemical_formula_structural  Li3Co2Si2O8
_chemical_formula_sum  Li3Co2Si2O8
_cell_volume  176.1301640094531
_cell_formula_units_Z  1
loop_
  _symmetry_equiv_pos_site_id
 _symmetry_equiv_pos_as_xyz
 1  'x, y, z'
loop_
 _atom_site_type_symbol
 _atom_site_label
 _atom_site_symmetry_multiplicity
 _atom_site_fract_x
 _atom_site_fract_y
 _atom_site_fract_z
 _atom_site_fract_occupancy
 Co  Co1  1  0.81236  0.18764  -0.00000  1
 Co  Co2  1  0.19853  0.80147  -0.00000  1
 Li  Li1  1  0.57388  0.09355  0.55454  1
 Li  Li2  1  0.90644  0.42611  0.44546  1
 Li  Li3  1  0.13738  0.86262  0.50000  1
 O  O1  1  0.19045  0.17754  0.04763  1
 O  O2  1  0.65113  0.27975  0.24581  1
 O  O3  1  0.23016  0.20868  0.45432  1
 O  O4  1  0.72024  0.34887  0.75419  1
 O  O5  1  0.24248  0.63523  0.24486  1
 O  O6  1  0.79132  0.76984  0.54568  1
 O  O7  1  0.36477  0.75753  0.75514  1
 O  O8  1  0.82246  0.80955  0.95237  1
 Si  Si1  1  0.33371  0.32660  0.25166  1
 Si  Si2  1  0.67341  0.66629  0.74834  1
