CIF file written using JARVIS-Tools package.
data_Li2VF6
_symmetry_space_group_name_H-M  'P4_2/mnm'
_cell_length_a       4.61236
_cell_length_b       4.61236
_cell_length_c       8.91661
_cell_angle_alpha    90
_cell_angle_beta     90
_cell_angle_gamma    90

_symmetry_Int_Tables_number  136
_chemical_formula_structural  Li2VF6
_chemical_formula_sum  Li4V2F2
_cell_volume  189.69066751601937
_cell_formula_units_Z  2
loop_
  _symmetry_equiv_pos_site_id
 _symmetry_equiv_pos_as_xyz
 1  'x, y, z'
loop_
 _atom_site_type_symbol
 _atom_site_label
 _atom_site_symmetry_multiplicity
 _atom_site_fract_x
 _atom_site_fract_y
 _atom_site_fract_z
 _atom_site_fract_occupancy
 F  F1  1  0.69506  0.69506  0.65472  1
 F  F2  1  0.19506  0.80494  0.15472  1
 F  F3  1  0.19506  0.80494  0.84528  1
 F  F4  1  0.80494  0.19506  0.84528  1
 F  F5  1  0.28432  0.28432  0.00000  1
 F  F6  1  0.21568  0.78432  0.50000  1
 F  F7  1  0.30494  0.30494  0.65472  1
 F  F8  1  0.69506  0.69506  0.34528  1
 F  F9  1  0.80494  0.19506  0.15472  1
 F  F10  1  0.71568  0.71568  0.00000  1
 F  F11  1  0.78432  0.21568  0.50000  1
 F  F12  1  0.30494  0.30494  0.34528  1
 Li  Li1  1  0.50000  0.50000  0.83548  1
 Li  Li2  1  0.50000  0.50000  0.16452  1
 Li  Li3  1  0.00000  0.00000  0.66452  1
 Li  Li4  1  0.00000  0.00000  0.33548  1
 V  V1  1  0.50000  0.50000  0.50000  1
 V  V2  1  0.00000  0.00000  0.00000  1
