CIF file written using JARVIS-Tools package.
data_KCN
_symmetry_space_group_name_H-M  'R3m'
_cell_length_a       3.85459
_cell_length_b       3.85507
_cell_length_c       3.85507
_cell_angle_alpha    86.6394
_cell_angle_beta     86.6346
_cell_angle_gamma    86.6346

_symmetry_Int_Tables_number  160
_chemical_formula_structural  KCN
_chemical_formula_sum  KCN
_cell_volume  57.000366182638174
_cell_formula_units_Z  1
loop_
  _symmetry_equiv_pos_site_id
 _symmetry_equiv_pos_as_xyz
 1  'x, y, z'
loop_
 _atom_site_type_symbol
 _atom_site_label
 _atom_site_symmetry_multiplicity
 _atom_site_fract_x
 _atom_site_fract_y
 _atom_site_fract_z
 _atom_site_fract_occupancy
 C  C1  1  0.62435  0.57946  0.57946  1
 K  K1  1  0.05412  0.00899  0.00899  1
 N  N1  1  0.45752  0.41255  0.41255  1
