CIF file written using JARVIS-Tools package.
data_Li3CuSbO5
_symmetry_space_group_name_H-M  'P1'
_cell_length_a       5.18275
_cell_length_b       5.49267
_cell_length_c       7.79106
_cell_angle_alpha    103.677
_cell_angle_beta     103.522
_cell_angle_gamma    104.355

_symmetry_Int_Tables_number  1
_chemical_formula_structural  Li3CuSbO5
_chemical_formula_sum  Li6Cu2Sb2O0
_cell_volume  198.4416821435554
_cell_formula_units_Z  2
loop_
  _symmetry_equiv_pos_site_id
 _symmetry_equiv_pos_as_xyz
 1  'x, y, z'
loop_
 _atom_site_type_symbol
 _atom_site_label
 _atom_site_symmetry_multiplicity
 _atom_site_fract_x
 _atom_site_fract_y
 _atom_site_fract_z
 _atom_site_fract_occupancy
 Cu  Cu1  1  0.00567  0.49823  -0.00045  1
 Cu  Cu2  1  0.70881  0.89216  0.90453  1
 Li  Li1  1  0.22280  0.87736  0.36261  1
 Li  Li2  1  0.41574  0.29905  0.81238  1
 Li  Li3  1  0.49779  0.46966  0.49155  1
 Li  Li4  1  0.28659  0.13159  0.10483  1
 Li  Li5  1  0.59760  0.69668  0.19765  1
 Li  Li6  1  0.77619  0.10931  0.61563  1
 O  O1  1  0.78896  0.47905  0.75604  1
 O  O2  1  0.55273  0.11827  0.35275  1
 O  O3  1  0.46242  0.89201  0.66889  1
 O  O4  1  0.22334  0.50196  0.24027  1
 O  O5  1  0.14601  0.34467  0.55348  1
 O  O6  1  0.93329  0.95737  0.16636  1
 O  O7  1  0.05465  0.03672  0.82748  1
 O  O8  1  0.66483  0.34617  0.06996  1
 O  O9  1  0.86673  0.66404  0.44560  1
 O  O10  1  0.34669  0.67962  0.93942  1
 Sb  Sb1  1  0.88521  0.29465  0.29711  1
 Sb  Sb2  1  0.10889  0.70358  0.70036  1
