CIF file written using JARVIS-Tools package.
data_NaVS2
_symmetry_space_group_name_H-M  'P-3m1'
_cell_length_a       3.55576
_cell_length_b       3.5558
_cell_length_c       6.62352
_cell_angle_alpha    90
_cell_angle_beta     90
_cell_angle_gamma    120

_symmetry_Int_Tables_number  164
_chemical_formula_structural  NaVS2
_chemical_formula_sum  NaVS2
_cell_volume  72.52558850251664
_cell_formula_units_Z  1
loop_
  _symmetry_equiv_pos_site_id
 _symmetry_equiv_pos_as_xyz
 1  'x, y, z'
loop_
 _atom_site_type_symbol
 _atom_site_label
 _atom_site_symmetry_multiplicity
 _atom_site_fract_x
 _atom_site_fract_y
 _atom_site_fract_z
 _atom_site_fract_occupancy
 Na  Na1  1  -0.00000  -0.00000  0.50000  1
 S  S1  1  0.66667  0.33334  0.79483  1
 S  S2  1  0.33333  0.66666  0.20517  1
 V  V1  1  0.00000  0.00000  0.00000  1
