CIF file written using JARVIS-Tools package.
data_LiVF3
_symmetry_space_group_name_H-M  'Cmcm'
_cell_length_a       3.20804
_cell_length_b       5.49099
_cell_length_c       6.56516
_cell_angle_alpha    90
_cell_angle_beta     104.138
_cell_angle_gamma    90

_symmetry_Int_Tables_number  63
_chemical_formula_structural  LiVF3
_chemical_formula_sum  Li2V2F6
_cell_volume  112.14417272724229
_cell_formula_units_Z  2
loop_
  _symmetry_equiv_pos_site_id
 _symmetry_equiv_pos_as_xyz
 1  'x, y, z'
loop_
 _atom_site_type_symbol
 _atom_site_label
 _atom_site_symmetry_multiplicity
 _atom_site_fract_x
 _atom_site_fract_y
 _atom_site_fract_z
 _atom_site_fract_occupancy
 F  F1  1  0.83538  0.00017  0.67085  1
 F  F2  1  0.83538  0.49983  0.67085  1
 F  F3  1  0.50970  0.75000  0.01890  1
 F  F4  1  0.49030  0.25000  0.98110  1
 F  F5  1  0.16462  0.50017  0.32915  1
 F  F6  1  0.16462  -0.00017  0.32915  1
 Li  Li1  1  0.93809  0.75000  0.87565  1
 Li  Li2  1  0.06191  0.25000  0.12435  1
 V  V1  1  0.66854  0.75000  0.33699  1
 V  V2  1  0.33146  0.25000  0.66301  1
