CIF file written using JARVIS-Tools package.
data_Li4MnCr5O12
_symmetry_space_group_name_H-M  'C2/m'
_cell_length_a       5.0262
_cell_length_b       5.00845
_cell_length_c       9.98886
_cell_angle_alpha    89.5353
_cell_angle_beta     89.0739
_cell_angle_gamma    59.8827

_symmetry_Int_Tables_number  12
_chemical_formula_structural  Li4MnCr5O12
_chemical_formula_sum  Li4MnCr5O2
_cell_volume  217.47925424931145
_cell_formula_units_Z  1
loop_
  _symmetry_equiv_pos_site_id
 _symmetry_equiv_pos_as_xyz
 1  'x, y, z'
loop_
 _atom_site_type_symbol
 _atom_site_label
 _atom_site_symmetry_multiplicity
 _atom_site_fract_x
 _atom_site_fract_y
 _atom_site_fract_z
 _atom_site_fract_occupancy
 Cr  Cr1  1  0.16051  0.67898  0.50000  1
 Cr  Cr2  1  0.66324  0.67352  -0.00000  1
 Cr  Cr3  1  0.33676  0.32648  0.00000  1
 Cr  Cr4  1  0.83949  0.32102  0.50000  1
 Cr  Cr5  1  0.50000  0.00000  0.50000  1
 Li  Li1  1  0.14868  0.49932  0.74692  1
 Li  Li2  1  0.35199  0.49932  0.25308  1
 Li  Li3  1  0.64801  0.50068  0.74692  1
 Li  Li4  1  0.85132  0.50068  0.25308  1
 Mn  Mn1  1  0.00000  0.00000  0.00000  1
 O  O1  1  0.68020  -0.00000  0.90019  1
 O  O2  1  0.33190  0.66586  0.89501  1
 O  O3  1  0.16541  0.34454  0.39235  1
 O  O4  1  0.50996  0.65546  0.39235  1
 O  O5  1  0.00224  0.66586  0.10499  1
 O  O6  1  0.99776  0.33414  0.89501  1
 O  O7  1  0.83459  0.65546  0.60765  1
 O  O8  1  0.66810  0.33414  0.10499  1
 O  O9  1  0.31980  0.00000  0.09981  1
 O  O10  1  0.49004  0.34454  0.60765  1
 O  O11  1  0.16219  0.00000  0.60480  1
 O  O12  1  0.83781  -0.00000  0.39520  1
