CIF file written using JARVIS-Tools package.
data_Li8MnO5F
_symmetry_space_group_name_H-M  'P1'
_cell_length_a       5.26185
_cell_length_b       5.27225
_cell_length_c       5.76428
_cell_angle_alpha    90.7038
_cell_angle_beta     115.624
_cell_angle_gamma    113.819

_symmetry_Int_Tables_number  1
_chemical_formula_structural  Li8MnO5F
_chemical_formula_sum  Li8MnO5F
_cell_volume  128.47288773292877
_cell_formula_units_Z  1
loop_
  _symmetry_equiv_pos_site_id
 _symmetry_equiv_pos_as_xyz
 1  'x, y, z'
loop_
 _atom_site_type_symbol
 _atom_site_label
 _atom_site_symmetry_multiplicity
 _atom_site_fract_x
 _atom_site_fract_y
 _atom_site_fract_z
 _atom_site_fract_occupancy
 F  F1  1  0.54804  0.44602  0.27628  1
 Li  Li1  1  0.24344  0.47097  0.35902  1
 Li  Li2  1  0.12258  0.22939  0.65399  1
 Li  Li3  1  0.40600  0.88608  0.64348  1
 Li  Li4  1  0.71006  0.35952  0.00816  1
 Li  Li5  1  0.31864  0.67487  0.97581  1
 Li  Li6  1  0.57846  0.09777  0.34762  1
 Li  Li7  1  0.90186  0.79515  0.36941  1
 Li  Li8  1  0.75749  0.52004  0.65331  1
 Mn  Mn1  1  0.95563  0.96627  0.97769  1
 O  O1  1  0.49196  0.57761  0.75928  1
 O  O2  1  0.87023  0.10880  0.23672  1
 O  O3  1  0.16768  0.77705  0.23243  1
 O  O4  1  0.81315  0.20450  0.75288  1
 O  O5  1  0.11478  0.88595  0.75392  1
