CIF file written using JARVIS-Tools package.
data_Li2Fe2SiO6
_symmetry_space_group_name_H-M  'C222'
_cell_length_a       5.27404
_cell_length_b       5.48488
_cell_length_c       6.08162
_cell_angle_alpha    90
_cell_angle_beta     90
_cell_angle_gamma    118.736

_symmetry_Int_Tables_number  21
_chemical_formula_structural  Li2Fe2SiO6
_chemical_formula_sum  Li2Fe2SiO6
_cell_volume  154.2593815746612
_cell_formula_units_Z  1
loop_
  _symmetry_equiv_pos_site_id
 _symmetry_equiv_pos_as_xyz
 1  'x, y, z'
loop_
 _atom_site_type_symbol
 _atom_site_label
 _atom_site_symmetry_multiplicity
 _atom_site_fract_x
 _atom_site_fract_y
 _atom_site_fract_z
 _atom_site_fract_occupancy
 Fe  Fe1  1  -0.00000  0.50000  0.67107  1
 Fe  Fe2  1  0.50000  0.50000  0.32893  1
 Li  Li1  1  0.00000  0.00000  0.28680  1
 Li  Li2  1  0.00000  0.00000  0.71320  1
 O  O1  1  0.21656  0.81620  0.84501  1
 O  O2  1  0.16091  0.32183  0.50000  1
 O  O3  1  0.59964  0.81620  0.15499  1
 O  O4  1  0.40036  0.18380  0.15499  1
 O  O5  1  0.83909  0.67817  0.50000  1
 O  O6  1  0.78344  0.18380  0.84501  1
 Si  Si1  1  0.50000  0.00000  0.00000  1
