CIF file written using JARVIS-Tools package.
data_Li2HfO3
_symmetry_space_group_name_H-M  'C2/m'
_cell_length_a       7.96801
_cell_length_b       7.96802
_cell_length_c       5.25808
_cell_angle_alpha    132.046
_cell_angle_beta     75.3322
_cell_angle_gamma    149.607

_symmetry_Int_Tables_number  12
_chemical_formula_structural  Li2HfO3
_chemical_formula_sum  Li2HfO3
_cell_volume  63.23235746646949
_cell_formula_units_Z  1
loop_
  _symmetry_equiv_pos_site_id
 _symmetry_equiv_pos_as_xyz
 1  'x, y, z'
loop_
 _atom_site_type_symbol
 _atom_site_label
 _atom_site_symmetry_multiplicity
 _atom_site_fract_x
 _atom_site_fract_y
 _atom_site_fract_z
 _atom_site_fract_occupancy
 Hf  Hf1  1  0.50145  0.50145  0.50000  1
 Li  Li1  1  0.95269  0.26823  0.60900  1
 Li  Li2  1  0.05022  0.73469  0.39100  1
 O  O1  1  0.60447  0.31935  0.46047  1
 O  O2  1  0.00146  0.00145  0.50000  1
 O  O3  1  0.39842  0.68354  0.53953  1
