CIF file written using JARVIS-Tools package.
data_ReSeCl
_symmetry_space_group_name_H-M  'C222_1'
_cell_length_a       9.03168
_cell_length_b       9.03168
_cell_length_c       11.2998
_cell_angle_alpha    90
_cell_angle_beta     90
_cell_angle_gamma    101.252

_symmetry_Int_Tables_number  20
_chemical_formula_structural  ReSeCl
_chemical_formula_sum  Re2Se2Cl2
_cell_volume  904.0223235327511
_cell_formula_units_Z  12
loop_
  _symmetry_equiv_pos_site_id
 _symmetry_equiv_pos_as_xyz
 1  'x, y, z'
loop_
 _atom_site_type_symbol
 _atom_site_label
 _atom_site_symmetry_multiplicity
 _atom_site_fract_x
 _atom_site_fract_y
 _atom_site_fract_z
 _atom_site_fract_occupancy
 Cl  Cl1  1  0.92609  0.66979  0.07682  1
 Cl  Cl2  1  0.20091  0.79909  0.50000  1
 Cl  Cl3  1  0.16979  0.42609  0.42318  1
 Cl  Cl4  1  0.15332  0.14391  0.64457  1
 Cl  Cl5  1  0.80778  0.19222  0.50000  1
 Cl  Cl6  1  0.29909  0.70091  0.00000  1
 Cl  Cl7  1  0.33021  0.07391  0.92318  1
 Cl  Cl8  1  0.57391  0.83021  0.57682  1
 Cl  Cl9  1  0.64391  0.65332  0.85543  1
 Cl  Cl10  1  0.69222  0.30778  0.00000  1
 Cl  Cl11  1  0.85609  0.84668  0.35543  1
 Cl  Cl12  1  0.34668  0.35609  0.14457  1
 Re  Re1  1  0.13028  0.86972  0.00000  1
 Re  Re2  1  0.06394  0.07022  0.84953  1
 Re  Re3  1  0.86312  0.13688  0.00000  1
 Re  Re4  1  0.92978  0.93606  0.15047  1
 Re  Re5  1  0.84880  0.85585  0.93069  1
 Re  Re6  1  0.43606  0.42978  0.34953  1
 Re  Re7  1  0.65120  0.64415  0.43069  1
 Re  Re8  1  0.57022  0.56394  0.65047  1
 Re  Re9  1  0.63688  0.36312  0.50000  1
 Re  Re10  1  0.35585  0.34880  0.56931  1
 Re  Re11  1  0.36972  0.63028  0.50000  1
 Re  Re12  1  0.14415  0.15120  0.06931  1
 Se  Se1  1  0.94900  0.20574  0.21191  1
 Se  Se2  1  0.04642  0.79634  0.78834  1
 Se  Se3  1  0.20366  0.95358  0.21166  1
 Se  Se4  1  0.07665  0.33993  0.92017  1
 Se  Se5  1  0.29634  0.54642  0.71166  1
 Se  Se6  1  0.45358  0.70366  0.28834  1
 Se  Se7  1  0.42335  0.16007  0.42017  1
 Se  Se8  1  0.70574  0.44900  0.28809  1
 Se  Se9  1  0.83993  0.57665  0.57983  1
 Se  Se10  1  0.79426  0.05100  0.78809  1
 Se  Se11  1  0.55100  0.29426  0.71191  1
 Se  Se12  1  0.66007  0.92335  0.07983  1
