CIF file written using JARVIS-Tools package.
data_InCl3
_symmetry_space_group_name_H-M  'P6_3/mmc'
_cell_length_a       8.90417
_cell_length_b       8.90473
_cell_length_c       3.45157
_cell_angle_alpha    89.9926
_cell_angle_beta     90.0053
_cell_angle_gamma    120.001

_symmetry_Int_Tables_number  194
_chemical_formula_structural  InCl3
_chemical_formula_sum  In2Cl6
_cell_volume  237.00554439342082
_cell_formula_units_Z  2
loop_
  _symmetry_equiv_pos_site_id
 _symmetry_equiv_pos_as_xyz
 1  'x, y, z'
loop_
 _atom_site_type_symbol
 _atom_site_label
 _atom_site_symmetry_multiplicity
 _atom_site_fract_x
 _atom_site_fract_y
 _atom_site_fract_z
 _atom_site_fract_occupancy
 Cl  Cl1  1  0.79132  0.20868  0.74999  1
 Cl  Cl2  1  0.41734  0.20867  0.75000  1
 Cl  Cl3  1  0.79132  0.58262  0.75001  1
 Cl  Cl4  1  0.20868  0.79132  0.25001  1
 Cl  Cl5  1  0.58266  0.79133  0.25000  1
 Cl  Cl6  1  0.20869  0.41737  0.24999  1
 In  In1  1  0.66666  0.33333  0.25000  1
 In  In2  1  0.33334  0.66667  0.75000  1
