CIF file written using JARVIS-Tools package.
data_Sr2Li2NiO4
_symmetry_space_group_name_H-M  'P-1'
_cell_length_a       5.3466
_cell_length_b       5.49029
_cell_length_c       8.34599
_cell_angle_alpha    105.856
_cell_angle_beta     97.3043
_cell_angle_gamma    98.0232

_symmetry_Int_Tables_number  2
_chemical_formula_structural  Sr2Li2NiO4
_chemical_formula_sum  Sr4Li4Ni2O8
_cell_volume  229.8231189518164
_cell_formula_units_Z  2
loop_
  _symmetry_equiv_pos_site_id
 _symmetry_equiv_pos_as_xyz
 1  'x, y, z'
loop_
 _atom_site_type_symbol
 _atom_site_label
 _atom_site_symmetry_multiplicity
 _atom_site_fract_x
 _atom_site_fract_y
 _atom_site_fract_z
 _atom_site_fract_occupancy
 Li  Li1  1  0.80148  0.37770  0.45443  1
 Li  Li2  1  0.41342  0.11726  0.41205  1
 Li  Li3  1  0.58658  0.88274  0.58795  1
 Li  Li4  1  0.19852  0.62230  0.54557  1
 Ni  Ni1  1  0.70884  0.60835  0.75613  1
 Ni  Ni2  1  0.29116  0.39165  0.24387  1
 O  O1  1  0.87334  0.73007  0.57614  1
 O  O2  1  0.67615  0.24232  0.63908  1
 O  O3  1  0.32385  0.75768  0.36092  1
 O  O4  1  0.12666  0.26993  0.42386  1
 O  O5  1  0.21227  0.29757  0.99789  1
 O  O6  1  0.42350  0.81079  0.76070  1
 O  O7  1  0.78773  0.70243  0.00211  1
 O  O8  1  0.57650  0.18921  0.23930  1
 Sr  Sr1  1  0.72735  0.21799  0.97688  1
 Sr  Sr2  1  0.16729  0.15421  0.69476  1
 Sr  Sr3  1  0.83271  0.84579  0.30524  1
 Sr  Sr4  1  0.27265  0.78201  0.02312  1
