CIF file written using JARVIS-Tools package.
data_MgCr2Se4
_symmetry_space_group_name_H-M  'Fd-3m'
_cell_length_a       7.58134
_cell_length_b       7.58137
_cell_length_c       7.58132
_cell_angle_alpha    59.999
_cell_angle_beta     59.9995
_cell_angle_gamma    59.9993

_symmetry_Int_Tables_number  227
_chemical_formula_structural  MgCr2Se4
_chemical_formula_sum  Mg2Cr4Se8
_cell_volume  308.11811450375086
_cell_formula_units_Z  2
loop_
  _symmetry_equiv_pos_site_id
 _symmetry_equiv_pos_as_xyz
 1  'x, y, z'
loop_
 _atom_site_type_symbol
 _atom_site_label
 _atom_site_symmetry_multiplicity
 _atom_site_fract_x
 _atom_site_fract_y
 _atom_site_fract_z
 _atom_site_fract_occupancy
 Cr  Cr1  1  0.50000  0.49999  0.50001  1
 Cr  Cr2  1  0.49999  0.00000  0.49999  1
 Cr  Cr3  1  0.50001  0.50000  1.00000  1
 Cr  Cr4  1  1.00000  0.50001  0.50001  1
 Mg  Mg1  1  0.87501  0.87500  0.87499  1
 Mg  Mg2  1  0.12501  0.12500  0.12500  1
 Se  Se1  1  0.73747  0.73751  0.73747  1
 Se  Se2  1  0.26253  0.71244  0.26252  1
 Se  Se3  1  0.71244  0.26251  0.26252  1
 Se  Se4  1  0.26252  0.26251  0.71245  1
 Se  Se5  1  0.28756  0.73747  0.73748  1
 Se  Se6  1  0.73747  0.73747  0.28758  1
 Se  Se7  1  0.26250  0.26255  0.26251  1
 Se  Se8  1  0.73749  0.28756  0.73748  1
