CIF file written using JARVIS-Tools package.
data_Si3CCl8
_symmetry_space_group_name_H-M  'P-1'
_cell_length_a       8.45345
_cell_length_b       8.88133
_cell_length_c       9.02332
_cell_angle_alpha    95.1354
_cell_angle_beta     116.377
_cell_angle_gamma    101.728

_symmetry_Int_Tables_number  2
_chemical_formula_structural  Si3CCl8
_chemical_formula_sum  Si6C2Cl6
_cell_volume  581.6317889615167
_cell_formula_units_Z  2
loop_
  _symmetry_equiv_pos_site_id
 _symmetry_equiv_pos_as_xyz
 1  'x, y, z'
loop_
 _atom_site_type_symbol
 _atom_site_label
 _atom_site_symmetry_multiplicity
 _atom_site_fract_x
 _atom_site_fract_y
 _atom_site_fract_z
 _atom_site_fract_occupancy
 C  C1  1  0.90985  0.35719  0.37773  1
 C  C2  1  0.09015  0.64281  0.62227  1
 Cl  Cl1  1  0.35600  0.41806  0.61419  1
 Cl  Cl2  1  0.83028  0.54784  0.80639  1
 Cl  Cl3  1  0.16972  0.45216  0.19361  1
 Cl  Cl4  1  0.23766  0.79240  0.02079  1
 Cl  Cl5  1  0.76234  0.20760  0.97921  1
 Cl  Cl6  1  0.89956  0.89739  0.72453  1
 Cl  Cl7  1  0.10044  0.10261  0.27547  1
 Cl  Cl8  1  0.37256  0.78609  0.46846  1
 Cl  Cl9  1  0.62744  0.21391  0.53154  1
 Cl  Cl10  1  0.53258  0.77713  0.87050  1
 Cl  Cl11  1  0.28358  0.01909  0.69909  1
 Cl  Cl12  1  0.64400  0.58194  0.38581  1
 Cl  Cl13  1  0.71642  0.98091  0.30091  1
 Cl  Cl14  1  0.90445  0.68530  0.21510  1
 Cl  Cl15  1  0.09555  0.31470  0.78490  1
 Cl  Cl16  1  0.46742  0.22287  0.12950  1
 Si  Si1  1  0.01709  0.71611  0.78351  1
 Si  Si2  1  0.98291  0.28389  0.21649  1
 Si  Si3  1  0.30825  0.79617  0.66154  1
 Si  Si4  1  0.69175  0.20383  0.33846  1
 Si  Si5  1  0.88767  0.57016  0.39528  1
 Si  Si6  1  0.11233  0.42984  0.60472  1
