CIF file written using JARVIS-Tools package.
data_Be2OsPt
_symmetry_space_group_name_H-M  'Immm'
_cell_length_a       8.88436
_cell_length_b       5.21049
_cell_length_c       5.2105
_cell_angle_alpha    29.124
_cell_angle_beta     31.5104
_cell_angle_gamma    31.5105

_symmetry_Int_Tables_number  71
_chemical_formula_structural  Be2OsPt
_chemical_formula_sum  Be2OsPt
_cell_volume  55.57576618068708
_cell_formula_units_Z  1
loop_
  _symmetry_equiv_pos_site_id
 _symmetry_equiv_pos_as_xyz
 1  'x, y, z'
loop_
 _atom_site_type_symbol
 _atom_site_label
 _atom_site_symmetry_multiplicity
 _atom_site_fract_x
 _atom_site_fract_y
 _atom_site_fract_z
 _atom_site_fract_occupancy
 Be  Be1  1  0.74857  0.00000  0.00000  1
 Be  Be2  1  0.25143  -0.00000  -0.00000  1
 Os  Os1  1  0.00000  0.00000  0.00000  1
 Pt  Pt1  1  0.50000  0.00000  -0.00000  1
