CIF file written using JARVIS-Tools package.
data_Ca2AlNiO5
_symmetry_space_group_name_H-M  'Ima2'
_cell_length_a       5.26797
_cell_length_b       5.6496
_cell_length_c       8.03937
_cell_angle_alpha    110.569
_cell_angle_beta     109.126
_cell_angle_gamma    89.9994

_symmetry_Int_Tables_number  46
_chemical_formula_structural  Ca2AlNiO5
_chemical_formula_sum  Ca4Al2Ni2O0
_cell_volume  209.8484381134107
_cell_formula_units_Z  2
loop_
  _symmetry_equiv_pos_site_id
 _symmetry_equiv_pos_as_xyz
 1  'x, y, z'
loop_
 _atom_site_type_symbol
 _atom_site_label
 _atom_site_symmetry_multiplicity
 _atom_site_fract_x
 _atom_site_fract_y
 _atom_site_fract_z
 _atom_site_fract_occupancy
 Al  Al1  1  0.20556  0.16900  0.49968  1
 Al  Al2  1  0.70558  0.83104  0.49972  1
 Ca  Ca1  1  0.10133  0.57156  0.21230  1
 Ca  Ca2  1  0.38874  0.85897  0.78710  1
 Ca  Ca3  1  0.88873  0.42848  0.78709  1
 Ca  Ca4  1  0.60134  0.14107  0.21229  1
 Ni  Ni1  1  0.50803  0.50002  0.99970  1
 Ni  Ni2  1  0.00803  0.00002  0.99970  1
 O  O1  1  0.27024  0.76192  0.03580  1
 O  O2  1  0.36896  0.89065  0.49969  1
 O  O3  1  0.67183  0.57435  0.28676  1
 O  O4  1  0.86896  0.10939  0.49970  1
 O  O5  1  0.77024  0.77422  0.03580  1
 O  O6  1  0.88476  0.78741  0.71274  1
 O  O7  1  0.73414  0.22582  0.96359  1
 O  O8  1  0.38476  0.42569  0.71264  1
 O  O9  1  0.17172  0.21263  0.28665  1
 O  O10  1  0.23415  0.23812  0.96359  1
