CIF file written using JARVIS-Tools package.
data_LiMn2OF3
_symmetry_space_group_name_H-M  'Pnma'
_cell_length_a       5.17603
_cell_length_b       6.28555
_cell_length_c       10.5983
_cell_angle_alpha    90
_cell_angle_beta     90
_cell_angle_gamma    90

_symmetry_Int_Tables_number  62
_chemical_formula_structural  LiMn2OF3
_chemical_formula_sum  Li4Mn8O4F2
_cell_volume  344.80645301290707
_cell_formula_units_Z  4
loop_
  _symmetry_equiv_pos_site_id
 _symmetry_equiv_pos_as_xyz
 1  'x, y, z'
loop_
 _atom_site_type_symbol
 _atom_site_label
 _atom_site_symmetry_multiplicity
 _atom_site_fract_x
 _atom_site_fract_y
 _atom_site_fract_z
 _atom_site_fract_occupancy
 F  F1  1  0.70519  0.75000  0.93011  1
 F  F2  1  0.28852  0.47654  0.83176  1
 F  F3  1  0.78852  0.52346  0.66824  1
 F  F4  1  0.78852  0.97654  0.66824  1
 F  F5  1  0.20519  0.25000  0.56989  1
 F  F6  1  0.79481  0.75000  0.43011  1
 F  F7  1  0.21148  0.47654  0.33176  1
 F  F8  1  0.21148  0.02346  0.33176  1
 F  F9  1  0.71148  0.97654  0.16824  1
 F  F10  1  0.71148  0.52346  0.16824  1
 F  F11  1  0.29481  0.25000  0.06989  1
 F  F12  1  0.28852  0.02346  0.83176  1
 Li  Li1  1  0.52051  0.75000  0.08932  1
 Li  Li2  1  0.47949  0.25000  0.91068  1
 Li  Li3  1  0.97949  0.75000  0.58932  1
 Li  Li4  1  0.02051  0.25000  0.41068  1
 Mn  Mn1  1  0.49227  0.75000  0.76091  1
 Mn  Mn2  1  0.99227  0.25000  0.73909  1
 Mn  Mn3  1  0.50000  0.50000  0.50000  1
 Mn  Mn4  1  0.50000  0.00000  0.50000  1
 Mn  Mn5  1  0.00773  0.75000  0.26091  1
 Mn  Mn6  1  0.50773  0.25000  0.23909  1
 Mn  Mn7  1  0.00000  0.50000  0.00000  1
 Mn  Mn8  1  0.00000  0.00000  0.00000  1
 O  O1  1  0.66264  0.25000  0.41574  1
 O  O2  1  0.16264  0.75000  0.08426  1
 O  O3  1  0.83736  0.25000  0.91574  1
 O  O4  1  0.33736  0.75000  0.58426  1
