CIF file written using JARVIS-Tools package.
data_Li3Fe2Si2O8
_symmetry_space_group_name_H-M  'P1'
_cell_length_a       5.00373
_cell_length_b       5.31416
_cell_length_c       6.37743
_cell_angle_alpha    90.6184
_cell_angle_beta     89.7755
_cell_angle_gamma    90.3757

_symmetry_Int_Tables_number  1
_chemical_formula_structural  Li3Fe2Si2O8
_chemical_formula_sum  Li3Fe2Si2O8
_cell_volume  169.56462228234767
_cell_formula_units_Z  1
loop_
  _symmetry_equiv_pos_site_id
 _symmetry_equiv_pos_as_xyz
 1  'x, y, z'
loop_
 _atom_site_type_symbol
 _atom_site_label
 _atom_site_symmetry_multiplicity
 _atom_site_fract_x
 _atom_site_fract_y
 _atom_site_fract_z
 _atom_site_fract_occupancy
 Fe  Fe1  1  0.00599  0.82964  0.01721  1
 Fe  Fe2  1  0.50150  0.16735  0.50035  1
 Li  Li1  1  0.50189  0.17668  0.00232  1
 Li  Li2  1  0.00548  0.82133  0.50148  1
 Li  Li3  1  0.99878  0.34255  0.75418  1
 O  O1  1  0.89440  0.18569  0.03514  1
 O  O2  1  0.33379  0.27925  0.25326  1
 O  O3  1  0.93441  0.62426  0.25413  1
 O  O4  1  0.89155  0.18893  0.46941  1
 O  O5  1  0.39420  0.82758  0.54787  1
 O  O6  1  0.83615  0.68491  0.76186  1
 O  O7  1  0.40065  0.37984  0.74647  1
 O  O8  1  0.38576  0.82765  0.96150  1
 Si  Si1  1  0.00998  0.32571  0.25274  1
 Si  Si2  1  0.50342  0.67818  0.75477  1
