CIF file written using JARVIS-Tools package.
data_Li4Cr3GaO8
_symmetry_space_group_name_H-M  'C2/m'
_cell_length_a       5.08828
_cell_length_b       5.85661
_cell_length_c       5.87531
_cell_angle_alpha    59.8955
_cell_angle_beta     89.9998
_cell_angle_gamma    73.1527

_symmetry_Int_Tables_number  12
_chemical_formula_structural  Li4Cr3GaO8
_chemical_formula_sum  Li4Cr3GaO8
_cell_volume  142.7151915241298
_cell_formula_units_Z  1
loop_
  _symmetry_equiv_pos_site_id
 _symmetry_equiv_pos_as_xyz
 1  'x, y, z'
loop_
 _atom_site_type_symbol
 _atom_site_label
 _atom_site_symmetry_multiplicity
 _atom_site_fract_x
 _atom_site_fract_y
 _atom_site_fract_z
 _atom_site_fract_occupancy
 Cr  Cr1  1  -0.00000  0.50000  -0.00002  1
 Cr  Cr2  1  0.00000  0.50000  0.50002  1
 Cr  Cr3  1  0.50000  0.50000  0.75000  1
 Ga  Ga1  1  0.50000  0.50000  0.25000  1
 Li  Li1  1  0.99558  0.00156  0.99922  1
 Li  Li2  1  0.00442  0.99844  0.50078  1
 Li  Li3  1  0.50000  -0.00000  0.25000  1
 Li  Li4  1  0.50000  0.00000  0.75000  1
 O  O1  1  0.24098  0.27281  0.36359  1
 O  O2  1  0.24175  0.27598  0.86200  1
 O  O3  1  0.74287  0.27314  0.11235  1
 O  O4  1  0.25713  0.72686  0.38765  1
 O  O5  1  0.25713  0.72687  0.88550  1
 O  O6  1  0.75902  0.72719  0.13641  1
 O  O7  1  0.74287  0.27313  0.61450  1
 O  O8  1  0.75825  0.72402  0.63800  1
