CIF file written using JARVIS-Tools package.
data_RbBS2
_symmetry_space_group_name_H-M  'R-3c'
_cell_length_a       9.66619
_cell_length_b       9.66619
_cell_length_c       9.66619
_cell_angle_alpha    111.519
_cell_angle_beta     111.519
_cell_angle_gamma    111.519

_symmetry_Int_Tables_number  167
_chemical_formula_structural  RbBS2
_chemical_formula_sum  Rb6B6S2
_cell_volume  637.1367862853598
_cell_formula_units_Z  6
loop_
  _symmetry_equiv_pos_site_id
 _symmetry_equiv_pos_as_xyz
 1  'x, y, z'
loop_
 _atom_site_type_symbol
 _atom_site_label
 _atom_site_symmetry_multiplicity
 _atom_site_fract_x
 _atom_site_fract_y
 _atom_site_fract_z
 _atom_site_fract_occupancy
 B  B1  1  0.25000  0.36284  0.13716  1
 B  B2  1  0.36284  0.13716  0.25000  1
 B  B3  1  0.13716  0.25000  0.36284  1
 B  B4  1  0.63716  0.86284  0.75000  1
 B  B5  1  0.75000  0.63716  0.86284  1
 B  B6  1  0.86284  0.75000  0.63716  1
 Rb  Rb1  1  0.69735  0.80265  0.25000  1
 Rb  Rb2  1  0.19735  0.75000  0.30265  1
 Rb  Rb3  1  0.75000  0.30265  0.19735  1
 Rb  Rb4  1  0.30265  0.19735  0.75000  1
 Rb  Rb5  1  0.80265  0.25000  0.69735  1
 Rb  Rb6  1  0.25000  0.69735  0.80265  1
 S  S1  1  0.36682  0.25000  0.13318  1
 S  S2  1  0.86682  0.63318  0.75000  1
 S  S3  1  0.75000  0.86682  0.63318  1
 S  S4  1  0.47391  0.02609  0.25000  1
 S  S5  1  0.25000  0.47391  0.02609  1
 S  S6  1  0.52609  0.97391  0.75000  1
 S  S7  1  0.75000  0.52609  0.97391  1
 S  S8  1  0.97391  0.75000  0.52609  1
 S  S9  1  0.25000  0.13318  0.36682  1
 S  S10  1  0.13318  0.36682  0.25000  1
 S  S11  1  0.02609  0.25000  0.47391  1
 S  S12  1  0.63318  0.75000  0.86682  1
