CIF file written using JARVIS-Tools package.
data_Li3V3O5F3
_symmetry_space_group_name_H-M  'Cm'
_cell_length_a       5.85821
_cell_length_b       5.86252
_cell_length_c       5.86252
_cell_angle_alpha    59.9507
_cell_angle_beta     60.0884
_cell_angle_gamma    60.0884

_symmetry_Int_Tables_number  8
_chemical_formula_structural  Li3V3O5F3
_chemical_formula_sum  Li3V3O5F3
_cell_volume  142.5067029847098
_cell_formula_units_Z  1
loop_
  _symmetry_equiv_pos_site_id
 _symmetry_equiv_pos_as_xyz
 1  'x, y, z'
loop_
 _atom_site_type_symbol
 _atom_site_label
 _atom_site_symmetry_multiplicity
 _atom_site_fract_x
 _atom_site_fract_y
 _atom_site_fract_z
 _atom_site_fract_occupancy
 F  F1  1  0.86160  0.37855  0.37855  1
 F  F2  1  0.38912  0.85407  0.37409  1
 F  F3  1  0.38912  0.37409  0.85407  1
 Li  Li1  1  0.26630  0.24953  0.24953  1
 Li  Li2  1  0.13276  0.62080  0.62080  1
 Li  Li3  1  0.62213  0.62258  0.62258  1
 O  O1  1  0.40830  0.38136  0.38136  1
 O  O2  1  0.86459  0.88731  0.38204  1
 O  O3  1  0.86459  0.38204  0.88731  1
 O  O4  1  0.84982  0.88225  0.88225  1
 O  O5  1  0.37654  0.87702  0.87702  1
 V  V1  1  0.98625  0.00730  0.00730  1
 V  V2  1  0.61945  0.62270  0.11041  1
 V  V3  1  0.61945  0.11041  0.62270  1
