CIF file written using JARVIS-Tools package.
data_Pb7Cl2F12
_symmetry_space_group_name_H-M  'P-6'
_cell_length_a       10.2895
_cell_length_b       10.2895
_cell_length_c       3.97475
_cell_angle_alpha    90
_cell_angle_beta     90
_cell_angle_gamma    120

_symmetry_Int_Tables_number  174
_chemical_formula_structural  Pb7Cl2F12
_chemical_formula_sum  Pb7Cl2F2
_cell_volume  364.4411680370319
_cell_formula_units_Z  1
loop_
  _symmetry_equiv_pos_site_id
 _symmetry_equiv_pos_as_xyz
 1  'x, y, z'
loop_
 _atom_site_type_symbol
 _atom_site_label
 _atom_site_symmetry_multiplicity
 _atom_site_fract_x
 _atom_site_fract_y
 _atom_site_fract_z
 _atom_site_fract_occupancy
 Cl  Cl1  1  0.33333  0.66667  0.00000  1
 Cl  Cl2  1  0.66667  0.33333  0.50000  1
 F  F1  1  0.96018  0.38843  0.00000  1
 F  F2  1  0.12810  0.21114  0.00000  1
 F  F3  1  0.61157  0.57175  0.00000  1
 F  F4  1  0.78886  0.91696  0.00000  1
 F  F5  1  0.05243  0.62109  0.50000  1
 F  F6  1  0.37891  0.43134  0.50000  1
 F  F7  1  0.56866  0.94757  0.50000  1
 F  F8  1  0.42825  0.03982  0.00000  1
 F  F9  1  0.08304  0.87190  0.00000  1
 F  F10  1  0.83706  0.72266  0.50000  1
 F  F11  1  0.27734  0.11439  0.50000  1
 F  F12  1  0.88561  0.16294  0.50000  1
 Pb  Pb1  1  0.00000  0.00000  0.50000  1
 Pb  Pb2  1  0.88605  0.59885  0.00000  1
 Pb  Pb3  1  0.40115  0.28719  0.00000  1
 Pb  Pb4  1  0.71281  0.11395  0.00000  1
 Pb  Pb5  1  0.30353  0.89002  0.50000  1
 Pb  Pb6  1  0.58648  0.69647  0.50000  1
 Pb  Pb7  1  0.10998  0.41352  0.50000  1
