CIF file written using JARVIS-Tools package.
data_Ti3Mn2Co3O16
_symmetry_space_group_name_H-M  'Cm'
_cell_length_a       5.71865
_cell_length_b       5.71873
_cell_length_c       8.72628
_cell_angle_alpha    88.6257
_cell_angle_beta     88.6249
_cell_angle_gamma    60.717

_symmetry_Int_Tables_number  8
_chemical_formula_structural  Ti3Mn2Co3O16
_chemical_formula_sum  Ti3Mn2Co3O6
_cell_volume  248.81519797469946
_cell_formula_units_Z  1
loop_
  _symmetry_equiv_pos_site_id
 _symmetry_equiv_pos_as_xyz
 1  'x, y, z'
loop_
 _atom_site_type_symbol
 _atom_site_label
 _atom_site_symmetry_multiplicity
 _atom_site_fract_x
 _atom_site_fract_y
 _atom_site_fract_z
 _atom_site_fract_occupancy
 Co  Co1  1  0.83074  0.83072  0.20771  1
 Co  Co2  1  0.16710  0.65886  0.70526  1
 Co  Co3  1  0.65885  0.16711  0.70526  1
 Mn  Mn1  1  0.67151  0.67152  0.48931  1
 Mn  Mn2  1  0.33445  0.33448  0.98240  1
 O  O1  1  0.04511  0.48237  0.84330  1
 O  O2  1  0.34513  0.82961  0.59965  1
 O  O3  1  0.52293  0.52297  0.35103  1
 O  O4  1  0.67038  0.67039  0.09535  1
 O  O5  1  0.47647  0.47648  0.82953  1
 O  O6  1  0.98695  0.98696  0.81792  1
 O  O7  1  0.82958  0.34516  0.59965  1
 O  O8  1  0.99372  0.99373  0.32298  1
 O  O9  1  0.95573  0.53526  0.34308  1
 O  O10  1  0.65768  0.17176  0.09773  1
 O  O11  1  0.83362  0.83364  0.60442  1
 O  O12  1  0.53526  0.95574  0.34307  1
 O  O13  1  0.48235  0.04512  0.84331  1
 O  O14  1  0.34063  0.34065  0.59778  1
 O  O15  1  0.17177  0.65769  0.09773  1
 O  O16  1  0.17476  0.17481  0.10163  1
 Ti  Ti1  1  0.15742  0.15743  0.71514  1
 Ti  Ti2  1  0.82833  0.32932  0.21125  1
 Ti  Ti3  1  0.32931  0.82841  0.21123  1
