CIF file written using JARVIS-Tools package.
data_Na3MnPCO7
_symmetry_space_group_name_H-M  'P2_1/m'
_cell_length_a       5.28239
_cell_length_b       6.62133
_cell_length_c       9.00249
_cell_angle_alpha    90
_cell_angle_beta     90.4643
_cell_angle_gamma    90

_symmetry_Int_Tables_number  11
_chemical_formula_structural  Na3MnPCO7
_chemical_formula_sum  Na6Mn2P2C2O4
_cell_volume  314.8644795839525
_cell_formula_units_Z  2
loop_
  _symmetry_equiv_pos_site_id
 _symmetry_equiv_pos_as_xyz
 1  'x, y, z'
loop_
 _atom_site_type_symbol
 _atom_site_label
 _atom_site_symmetry_multiplicity
 _atom_site_fract_x
 _atom_site_fract_y
 _atom_site_fract_z
 _atom_site_fract_occupancy
 C  C1  1  0.50272  0.26348  0.85041  1
 C  C2  1  0.49728  0.76348  0.14959  1
 Mn  Mn1  1  0.97996  0.26346  0.70457  1
 Mn  Mn2  1  0.02004  0.76346  0.29543  1
 Na  Na1  1  -0.00004  0.51357  0.99995  1
 Na  Na2  1  0.56074  0.76370  0.83640  1
 Na  Na3  1  0.50011  0.51341  0.50006  1
 Na  Na4  1  0.49989  0.01341  0.49994  1
 Na  Na5  1  0.43926  0.26370  0.16360  1
 Na  Na6  1  0.00004  0.01357  0.00005  1
 O  O1  1  0.55681  0.26334  0.71102  1
 O  O2  1  0.92713  0.57651  0.74887  1
 O  O3  1  0.73420  0.76356  0.10706  1
 O  O4  1  0.26580  0.26356  0.89294  1
 O  O5  1  0.68085  0.26352  0.95078  1
 O  O6  1  0.92738  0.95042  0.74896  1
 O  O7  1  0.87259  0.76358  0.50516  1
 O  O8  1  0.07262  0.45042  0.25104  1
 O  O9  1  0.69638  0.26339  0.36456  1
 O  O10  1  0.44319  0.76334  0.28898  1
 O  O11  1  0.07287  0.07651  0.25113  1
 O  O12  1  0.30362  0.76339  0.63544  1
 O  O13  1  0.12741  0.26358  0.49484  1
 O  O14  1  0.31915  0.76352  0.04922  1
 P  P1  1  0.01591  0.76347  0.65732  1
 P  P2  1  0.98409  0.26347  0.34268  1
