CIF file written using JARVIS-Tools package.
data_LiMn2F6
_symmetry_space_group_name_H-M  'P2_1/c'
_cell_length_a       4.68848
_cell_length_b       4.68785
_cell_length_c       10.5612
_cell_angle_alpha    90
_cell_angle_beta     116.088
_cell_angle_gamma    90

_symmetry_Int_Tables_number  14
_chemical_formula_structural  LiMn2F6
_chemical_formula_sum  Li2Mn4F2
_cell_volume  208.4744201352751
_cell_formula_units_Z  2
loop_
  _symmetry_equiv_pos_site_id
 _symmetry_equiv_pos_as_xyz
 1  'x, y, z'
loop_
 _atom_site_type_symbol
 _atom_site_label
 _atom_site_symmetry_multiplicity
 _atom_site_fract_x
 _atom_site_fract_y
 _atom_site_fract_z
 _atom_site_fract_occupancy
 F  F1  1  0.62524  0.70228  0.32793  1
 F  F2  1  0.30086  0.69855  0.99945  1
 F  F3  1  0.03192  0.20265  0.82949  1
 F  F4  1  0.96808  0.79735  0.17051  1
 F  F5  1  0.96808  0.70265  0.67051  1
 F  F6  1  0.62524  0.79772  0.82793  1
 F  F7  1  0.69914  0.19855  0.50055  1
 F  F8  1  0.30086  0.80145  0.49945  1
 F  F9  1  0.69914  0.30145  0.00055  1
 F  F10  1  0.03192  0.29735  0.32949  1
 F  F11  1  0.37476  0.20228  0.17207  1
 F  F12  1  0.37476  0.29772  0.67207  1
 Li  Li1  1  0.00000  0.50000  0.50000  1
 Li  Li2  1  0.00000  0.00000  0.00000  1
 Mn  Mn1  1  0.66643  0.49949  0.16572  1
 Mn  Mn2  1  0.33357  0.99949  0.33428  1
 Mn  Mn3  1  0.66643  0.00051  0.66572  1
 Mn  Mn4  1  0.33357  0.50051  0.83428  1
