CIF file written using JARVIS-Tools package.
data_MgCr2O4
_symmetry_space_group_name_H-M  'Fd-3m'
_cell_length_a       5.93785
_cell_length_b       5.93784
_cell_length_c       5.93785
_cell_angle_alpha    60
_cell_angle_beta     60
_cell_angle_gamma    60

_symmetry_Int_Tables_number  227
_chemical_formula_structural  MgCr2O4
_chemical_formula_sum  Mg2Cr4O8
_cell_volume  148.03753152697738
_cell_formula_units_Z  2
loop_
  _symmetry_equiv_pos_site_id
 _symmetry_equiv_pos_as_xyz
 1  'x, y, z'
loop_
 _atom_site_type_symbol
 _atom_site_label
 _atom_site_symmetry_multiplicity
 _atom_site_fract_x
 _atom_site_fract_y
 _atom_site_fract_z
 _atom_site_fract_occupancy
 Cr  Cr1  1  0.50000  0.50000  -0.00000  1
 Cr  Cr2  1  0.50000  0.50000  0.50000  1
 Cr  Cr3  1  0.00000  0.50000  0.50000  1
 Cr  Cr4  1  0.50000  0.00000  0.50000  1
 Mg  Mg1  1  0.12500  0.12500  0.12500  1
 Mg  Mg2  1  0.87500  0.87500  0.87500  1
 O  O1  1  0.73847  0.73847  0.73847  1
 O  O2  1  0.26153  0.26153  0.71540  1
 O  O3  1  0.26153  0.71540  0.26153  1
 O  O4  1  0.71540  0.26153  0.26153  1
 O  O5  1  0.73847  0.28460  0.73847  1
 O  O6  1  0.28460  0.73847  0.73847  1
 O  O7  1  0.26153  0.26153  0.26153  1
 O  O8  1  0.73847  0.73847  0.28460  1
