CIF file written using JARVIS-Tools package.
data_Li4CrO4
_symmetry_space_group_name_H-M  'Cmcm'
_cell_length_a       5.35773
_cell_length_b       5.35773
_cell_length_c       6.09148
_cell_angle_alpha    90
_cell_angle_beta     90
_cell_angle_gamma    93.9493

_symmetry_Int_Tables_number  63
_chemical_formula_structural  Li4CrO4
_chemical_formula_sum  Li8Cr2O8
_cell_volume  174.44286545896324
_cell_formula_units_Z  2
loop_
  _symmetry_equiv_pos_site_id
 _symmetry_equiv_pos_as_xyz
 1  'x, y, z'
loop_
 _atom_site_type_symbol
 _atom_site_label
 _atom_site_symmetry_multiplicity
 _atom_site_fract_x
 _atom_site_fract_y
 _atom_site_fract_z
 _atom_site_fract_occupancy
 Cr  Cr1  1  0.65996  0.65996  0.75000  1
 Cr  Cr2  1  0.34004  0.34004  0.25000  1
 Li  Li1  1  0.83975  0.16025  0.50000  1
 Li  Li2  1  0.83975  0.16025  0.00000  1
 Li  Li3  1  0.42162  0.12608  0.75000  1
 Li  Li4  1  0.16025  0.83975  0.50000  1
 Li  Li5  1  0.57838  0.87392  0.25000  1
 Li  Li6  1  0.12608  0.42162  0.75000  1
 Li  Li7  1  0.16025  0.83975  0.00000  1
 Li  Li8  1  0.87392  0.57838  0.25000  1
 O  O1  1  0.73550  0.33891  0.75000  1
 O  O2  1  0.26450  0.66109  0.25000  1
 O  O3  1  0.33891  0.73550  0.75000  1
 O  O4  1  0.20428  0.20428  0.49617  1
 O  O5  1  0.79572  0.79572  0.50383  1
 O  O6  1  0.79572  0.79572  0.99617  1
 O  O7  1  0.20428  0.20428  0.00383  1
 O  O8  1  0.66109  0.26450  0.25000  1
