CIF file written using JARVIS-Tools package.
data_Li5WNO4
_symmetry_space_group_name_H-M  'Cmc2_1'
_cell_length_a       5.20979
_cell_length_b       5.20979
_cell_length_c       9.62616
_cell_angle_alpha    90
_cell_angle_beta     90
_cell_angle_gamma    123.769

_symmetry_Int_Tables_number  36
_chemical_formula_structural  Li5WNO4
_chemical_formula_sum  Li0W2N2O8
_cell_volume  217.19241293742311
_cell_formula_units_Z  2
loop_
  _symmetry_equiv_pos_site_id
 _symmetry_equiv_pos_as_xyz
 1  'x, y, z'
loop_
 _atom_site_type_symbol
 _atom_site_label
 _atom_site_symmetry_multiplicity
 _atom_site_fract_x
 _atom_site_fract_y
 _atom_site_fract_z
 _atom_site_fract_occupancy
 Li  Li1  1  0.23471  0.80003  0.99557  1
 Li  Li2  1  0.19997  0.76529  0.49557  1
 Li  Li3  1  0.43816  0.82354  0.74320  1
 Li  Li4  1  0.17646  0.56184  0.24320  1
 Li  Li5  1  0.42718  0.42718  0.47295  1
 Li  Li6  1  0.57282  0.57282  0.97295  1
 Li  Li7  1  0.82354  0.43816  0.74320  1
 Li  Li8  1  0.56184  0.17646  0.24320  1
 Li  Li9  1  0.80003  0.23471  0.99557  1
 Li  Li10  1  0.76529  0.19997  0.49557  1
 N  N1  1  0.17853  0.17853  0.26756  1
 N  N2  1  0.82147  0.82147  0.76756  1
 O  O1  1  0.42123  0.12816  0.61107  1
 O  O2  1  0.87184  0.57877  0.11107  1
 O  O3  1  0.12816  0.42123  0.61107  1
 O  O4  1  0.57877  0.87184  0.11107  1
 O  O5  1  0.45809  0.16206  0.87962  1
 O  O6  1  0.54191  0.83794  0.37962  1
 O  O7  1  0.83794  0.54191  0.37962  1
 O  O8  1  0.16206  0.45809  0.87962  1
 W  W1  1  0.81741  0.81741  0.25104  1
 W  W2  1  0.18259  0.18259  0.75104  1
