CIF file written using JARVIS-Tools package.
data_TbB3O6
_symmetry_space_group_name_H-M  'C2/c'
_cell_length_a       6.08759
_cell_length_b       6.48312
_cell_length_c       6.48313
_cell_angle_alpha    80.5451
_cell_angle_beta     62.1078
_cell_angle_gamma    62.1077

_symmetry_Int_Tables_number  15
_chemical_formula_structural  TbB3O6
_chemical_formula_sum  Tb2B6O2
_cell_volume  199.38293792421942
_cell_formula_units_Z  2
loop_
  _symmetry_equiv_pos_site_id
 _symmetry_equiv_pos_as_xyz
 1  'x, y, z'
loop_
 _atom_site_type_symbol
 _atom_site_label
 _atom_site_symmetry_multiplicity
 _atom_site_fract_x
 _atom_site_fract_y
 _atom_site_fract_z
 _atom_site_fract_occupancy
 B  B1  1  0.61946  0.31529  0.18723  1
 B  B2  1  0.88054  0.81277  0.68471  1
 B  B3  1  0.75000  0.24842  0.75158  1
 B  B4  1  0.11946  0.18723  0.31529  1
 B  B5  1  0.25000  0.75158  0.24842  1
 B  B6  1  0.38054  0.68471  0.81277  1
 O  O1  1  0.06530  0.34395  0.16151  1
 O  O2  1  0.56530  0.16151  0.34395  1
 O  O3  1  0.19547  0.75416  0.04939  1
 O  O4  1  0.30453  0.95061  0.24584  1
 O  O5  1  0.99927  0.75000  0.44672  1
 O  O6  1  0.50073  0.55328  0.25000  1
 O  O7  1  0.93470  0.65605  0.83849  1
 O  O8  1  0.49927  0.44672  0.75000  1
 O  O9  1  0.43470  0.83849  0.65605  1
 O  O10  1  0.80453  0.24584  0.95061  1
 O  O11  1  0.69547  0.04939  0.75416  1
 O  O12  1  0.00073  0.25000  0.55328  1
 Tb  Tb1  1  0.75000  0.75245  0.24755  1
 Tb  Tb2  1  0.25000  0.24755  0.75245  1
