CIF file written using JARVIS-Tools package.
data_Li2CrO4
_symmetry_space_group_name_H-M  'Pmn2_1'
_cell_length_a       5.072
_cell_length_b       5.23462
_cell_length_c       6.63884
_cell_angle_alpha    90
_cell_angle_beta     90
_cell_angle_gamma    90

_symmetry_Int_Tables_number  31
_chemical_formula_structural  Li2CrO4
_chemical_formula_sum  Li4Cr2O8
_cell_volume  176.2612768041744
_cell_formula_units_Z  2
loop_
  _symmetry_equiv_pos_site_id
 _symmetry_equiv_pos_as_xyz
 1  'x, y, z'
loop_
 _atom_site_type_symbol
 _atom_site_label
 _atom_site_symmetry_multiplicity
 _atom_site_fract_x
 _atom_site_fract_y
 _atom_site_fract_z
 _atom_site_fract_occupancy
 Cr  Cr1  1  0.99900  0.18102  0.00000  1
 Cr  Cr2  1  0.49900  0.81898  0.50000  1
 Li  Li1  1  0.00523  0.67599  0.24857  1
 Li  Li2  1  0.50523  0.32401  0.25143  1
 Li  Li3  1  0.50523  0.32401  0.74857  1
 Li  Li4  1  0.00523  0.67599  0.75143  1
 O  O1  1  0.06986  0.87077  0.00000  1
 O  O2  1  0.67436  0.22401  0.00000  1
 O  O3  1  0.12321  0.32070  0.20342  1
 O  O4  1  0.62321  0.67930  0.29658  1
 O  O5  1  0.17436  0.77599  0.50000  1
 O  O6  1  0.56986  0.12923  0.50000  1
 O  O7  1  0.62321  0.67930  0.70342  1
 O  O8  1  0.12321  0.32070  0.79658  1
