CIF file written using JARVIS-Tools package.
data_Li2Ni2SbO6
_symmetry_space_group_name_H-M  'Cmce'
_cell_length_a       5.18511
_cell_length_b       5.1851
_cell_length_c       9.87131
_cell_angle_alpha    90
_cell_angle_beta     90
_cell_angle_gamma    119.047

_symmetry_Int_Tables_number  64
_chemical_formula_structural  Li2Ni2SbO6
_chemical_formula_sum  Li4Ni4Sb2O2
_cell_volume  232.01305853133348
_cell_formula_units_Z  2
loop_
  _symmetry_equiv_pos_site_id
 _symmetry_equiv_pos_as_xyz
 1  'x, y, z'
loop_
 _atom_site_type_symbol
 _atom_site_label
 _atom_site_symmetry_multiplicity
 _atom_site_fract_x
 _atom_site_fract_y
 _atom_site_fract_z
 _atom_site_fract_occupancy
 Li  Li1  1  0.13623  0.63623  0.75000  1
 Li  Li2  1  0.36377  0.86377  0.25000  1
 Li  Li3  1  0.63623  0.13623  0.75000  1
 Li  Li4  1  0.86377  0.36377  0.25000  1
 Ni  Ni1  1  0.16483  0.83517  0.50000  1
 Ni  Ni2  1  0.33517  0.66483  0.00000  1
 Ni  Ni3  1  0.66483  0.33517  0.00000  1
 Ni  Ni4  1  0.83517  0.16483  0.50000  1
 O  O1  1  0.81933  0.47432  0.61088  1
 O  O2  1  0.97432  0.31933  0.88912  1
 O  O3  1  0.18067  0.52568  0.38912  1
 O  O4  1  0.47432  0.81933  0.61088  1
 O  O5  1  0.02568  0.68067  0.11088  1
 O  O6  1  0.33488  0.33488  0.09953  1
 O  O7  1  0.52568  0.18067  0.38912  1
 O  O8  1  0.31933  0.97432  0.88912  1
 O  O9  1  0.83488  0.83488  0.40047  1
 O  O10  1  0.16512  0.16512  0.59953  1
 O  O11  1  0.66512  0.66512  0.90047  1
 O  O12  1  0.68067  0.02568  0.11088  1
 Sb  Sb1  1  0.50000  0.50000  0.50000  1
 Sb  Sb2  1  0.00000  0.00000  0.00000  1
