CIF file written using JARVIS-Tools package.
data_Mg2V3O8
_symmetry_space_group_name_H-M  'C2/m'
_cell_length_a       4.81104
_cell_length_b       5.75492
_cell_length_c       6.03365
_cell_angle_alpha    118.483
_cell_angle_beta     109.363
_cell_angle_gamma    90

_symmetry_Int_Tables_number  12
_chemical_formula_structural  Mg2V3O8
_chemical_formula_sum  Mg2V3O8
_cell_volume  135.98635569011057
_cell_formula_units_Z  1
loop_
  _symmetry_equiv_pos_site_id
 _symmetry_equiv_pos_as_xyz
 1  'x, y, z'
loop_
 _atom_site_type_symbol
 _atom_site_label
 _atom_site_symmetry_multiplicity
 _atom_site_fract_x
 _atom_site_fract_y
 _atom_site_fract_z
 _atom_site_fract_occupancy
 Mg  Mg1  1  0.66576  0.73339  0.46677  1
 Mg  Mg2  1  0.33424  0.26661  0.53323  1
 O  O1  1  0.08308  0.38516  0.77032  1
 O  O2  1  0.91692  0.61484  0.22968  1
 O  O3  1  0.09066  0.89594  0.79188  1
 O  O4  1  0.90934  0.10406  0.20812  1
 O  O5  1  0.39985  0.34651  0.23036  1
 O  O6  1  0.39985  0.88384  0.23036  1
 O  O7  1  0.60015  0.11616  0.76964  1
 O  O8  1  0.60015  0.65349  0.76964  1
 V  V1  1  0.50000  1.00000  0.00000  1
 V  V2  1  1.00000  0.71050  -0.00000  1
 V  V3  1  1.00000  0.28950  0.00000  1
