CIF file written using JARVIS-Tools package.
data_LiVC2O6
_symmetry_space_group_name_H-M  'P2_1'
_cell_length_a       6.05784
_cell_length_b       4.5513
_cell_length_c       7.06913
_cell_angle_alpha    90
_cell_angle_beta     102.269
_cell_angle_gamma    90

_symmetry_Int_Tables_number  4
_chemical_formula_structural  LiVC2O6
_chemical_formula_sum  Li2V2C4O2
_cell_volume  190.45153819563285
_cell_formula_units_Z  2
loop_
  _symmetry_equiv_pos_site_id
 _symmetry_equiv_pos_as_xyz
 1  'x, y, z'
loop_
 _atom_site_type_symbol
 _atom_site_label
 _atom_site_symmetry_multiplicity
 _atom_site_fract_x
 _atom_site_fract_y
 _atom_site_fract_z
 _atom_site_fract_occupancy
 C  C1  1  0.22683  0.21627  0.87573  1
 C  C2  1  0.73220  0.73755  0.63136  1
 C  C3  1  0.26780  0.23755  0.36864  1
 C  C4  1  0.77317  0.71627  0.12427  1
 Li  Li1  1  0.17581  0.70828  0.56657  1
 Li  Li2  1  0.82419  0.20828  0.43343  1
 O  O1  1  0.06196  0.06584  0.92270  1
 O  O2  1  0.79148  0.98814  0.16492  1
 O  O3  1  0.40975  0.06225  0.88950  1
 O  O4  1  0.63424  0.57827  0.74047  1
 O  O5  1  0.20852  0.48814  0.83508  1
 O  O6  1  0.84037  0.62986  0.51208  1
 O  O7  1  0.36576  0.07827  0.25953  1
 O  O8  1  0.28483  0.52489  0.35278  1
 O  O9  1  0.71517  0.02489  0.64722  1
 O  O10  1  0.59025  0.56225  0.11050  1
 O  O11  1  0.15963  0.12986  0.48792  1
 O  O12  1  0.93804  0.56584  0.07730  1
 V  V1  1  0.27009  0.73565  0.09221  1
 V  V2  1  0.72991  0.23565  0.90779  1
