CIF file written using JARVIS-Tools package.
data_Sc2NiPd
_symmetry_space_group_name_H-M  'Immm'
_cell_length_a       9.29514
_cell_length_b       11.3522
_cell_length_c       11.3522
_cell_angle_alpha    61.3039
_cell_angle_beta     65.833
_cell_angle_gamma    65.833

_symmetry_Int_Tables_number  71
_chemical_formula_structural  Sc2NiPd
_chemical_formula_sum  Sc2NiPd
_cell_volume  924.1580456186938
_cell_formula_units_Z  1
loop_
  _symmetry_equiv_pos_site_id
 _symmetry_equiv_pos_as_xyz
 1  'x, y, z'
loop_
 _atom_site_type_symbol
 _atom_site_label
 _atom_site_symmetry_multiplicity
 _atom_site_fract_x
 _atom_site_fract_y
 _atom_site_fract_z
 _atom_site_fract_occupancy
 Ni  Ni1  1  0.00000  0.00000  0.00000  1
 Pd  Pd1  1  0.50000  0.00000  -0.00000  1
 Sc  Sc1  1  0.76078  0.00000  -0.00000  1
 Sc  Sc2  1  0.23922  -0.00000  0.00000  1
