CIF file written using JARVIS-Tools package.
data_NdB4Rh4
_symmetry_space_group_name_H-M  'P4_2/nmc'
_cell_length_a       5.367
_cell_length_b       5.367
_cell_length_c       7.55872
_cell_angle_alpha    90
_cell_angle_beta     90
_cell_angle_gamma    90

_symmetry_Int_Tables_number  137
_chemical_formula_structural  NdB4Rh4
_chemical_formula_sum  Nd2B8Rh8
_cell_volume  217.7265326525637
_cell_formula_units_Z  2
loop_
  _symmetry_equiv_pos_site_id
 _symmetry_equiv_pos_as_xyz
 1  'x, y, z'
loop_
 _atom_site_type_symbol
 _atom_site_label
 _atom_site_symmetry_multiplicity
 _atom_site_fract_x
 _atom_site_fract_y
 _atom_site_fract_z
 _atom_site_fract_occupancy
 B  B1  1  0.33256  0.00000  0.15139  1
 B  B2  1  0.00000  0.66744  0.84861  1
 B  B3  1  0.16744  0.50000  0.34861  1
 B  B4  1  0.50000  0.16744  0.65139  1
 B  B5  1  0.50000  0.83256  0.65139  1
 B  B6  1  0.83256  0.50000  0.34861  1
 B  B7  1  0.00000  0.33256  0.84861  1
 B  B8  1  0.66744  0.00000  0.15139  1
 Nd  Nd1  1  0.50000  0.50000  0.00000  1
 Nd  Nd2  1  0.00000  0.00000  0.50000  1
 Rh  Rh1  1  0.50000  0.74838  0.35691  1
 Rh  Rh2  1  0.00000  0.75162  0.14309  1
 Rh  Rh3  1  0.00000  0.24838  0.14309  1
 Rh  Rh4  1  0.24838  0.00000  0.85691  1
 Rh  Rh5  1  0.75162  0.00000  0.85691  1
 Rh  Rh6  1  0.25162  0.50000  0.64309  1
 Rh  Rh7  1  0.74838  0.50000  0.64309  1
 Rh  Rh8  1  0.50000  0.25162  0.35691  1
