CIF file written using JARVIS-Tools package.
data_Li2AlCoO4
_symmetry_space_group_name_H-M  'Pmn2_1'
_cell_length_a       4.96375
_cell_length_b       5.45458
_cell_length_c       6.21073
_cell_angle_alpha    90
_cell_angle_beta     90
_cell_angle_gamma    90

_symmetry_Int_Tables_number  31
_chemical_formula_structural  Li2AlCoO4
_chemical_formula_sum  Li4Al2Co2O8
_cell_volume  168.15636223879406
_cell_formula_units_Z  2
loop_
  _symmetry_equiv_pos_site_id
 _symmetry_equiv_pos_as_xyz
 1  'x, y, z'
loop_
 _atom_site_type_symbol
 _atom_site_label
 _atom_site_symmetry_multiplicity
 _atom_site_fract_x
 _atom_site_fract_y
 _atom_site_fract_z
 _atom_site_fract_occupancy
 Al  Al1  1  0.50159  0.83735  0.00000  1
 Al  Al2  1  0.00159  0.16265  0.50000  1
 Co  Co1  1  0.00464  0.17181  0.00000  1
 Co  Co2  1  0.50464  0.82819  0.50000  1
 Li  Li1  1  0.00683  0.66467  0.24986  1
 Li  Li2  1  0.50683  0.33533  0.25014  1
 Li  Li3  1  0.00683  0.66467  0.75014  1
 Li  Li4  1  0.50683  0.33533  0.74986  1
 O  O1  1  0.14115  0.84776  0.00000  1
 O  O2  1  0.62472  0.14517  0.00000  1
 O  O3  1  0.10712  0.31891  0.26127  1
 O  O4  1  0.60712  0.68109  0.23873  1
 O  O5  1  0.12472  0.85483  0.50000  1
 O  O6  1  0.64115  0.15224  0.50000  1
 O  O7  1  0.60712  0.68109  0.76127  1
 O  O8  1  0.10712  0.31891  0.73873  1
