CIF file written using JARVIS-Tools package.
data_LiNiPO4
_symmetry_space_group_name_H-M  'Pbcn'
_cell_length_a       4.25148
_cell_length_b       4.7602
_cell_length_c       14.0713
_cell_angle_alpha    90
_cell_angle_beta     90
_cell_angle_gamma    90

_symmetry_Int_Tables_number  60
_chemical_formula_structural  LiNiPO4
_chemical_formula_sum  Li4Ni4P4O6
_cell_volume  284.7737844370373
_cell_formula_units_Z  4
loop_
  _symmetry_equiv_pos_site_id
 _symmetry_equiv_pos_as_xyz
 1  'x, y, z'
loop_
 _atom_site_type_symbol
 _atom_site_label
 _atom_site_symmetry_multiplicity
 _atom_site_fract_x
 _atom_site_fract_y
 _atom_site_fract_z
 _atom_site_fract_occupancy
 Li  Li1  1  0.00000  0.25000  0.24959  1
 Li  Li2  1  0.00000  0.75000  0.75041  1
 Li  Li3  1  0.50000  0.75000  0.25041  1
 Li  Li4  1  0.50000  0.25000  0.74959  1
 Ni  Ni1  1  0.00000  0.75000  0.06303  1
 Ni  Ni2  1  0.00000  0.25000  0.93697  1
 Ni  Ni3  1  0.50000  0.25000  0.43697  1
 Ni  Ni4  1  0.50000  0.75000  0.56303  1
 O  O1  1  0.81393  0.03359  0.67133  1
 O  O2  1  0.75792  0.41210  0.54848  1
 O  O3  1  0.75792  0.91210  0.45152  1
 O  O4  1  0.81393  0.53359  0.32867  1
 O  O5  1  0.74208  0.41210  0.04848  1
 O  O6  1  0.18607  0.96641  0.32867  1
 O  O7  1  0.68607  0.53359  0.82867  1
 O  O8  1  0.74208  0.91210  0.95152  1
 O  O9  1  0.31393  0.46641  0.17133  1
 O  O10  1  0.25792  0.08790  0.04848  1
 O  O11  1  0.24208  0.08790  0.54848  1
 O  O12  1  0.24208  0.58790  0.45152  1
 O  O13  1  0.68607  0.03359  0.17133  1
 O  O14  1  0.25792  0.58790  0.95152  1
 O  O15  1  0.31393  0.96641  0.82867  1
 O  O16  1  0.18607  0.46641  0.67133  1
 P  P1  1  0.00000  0.75000  0.38950  1
 P  P2  1  0.00000  0.25000  0.61050  1
 P  P3  1  0.50000  0.75000  0.88950  1
 P  P4  1  0.50000  0.25000  0.11050  1
