CIF file written using JARVIS-Tools package.
data_Tc3Ni
_symmetry_space_group_name_H-M  'P6_3/mmc'
_cell_length_a       5.36581
_cell_length_b       5.36581
_cell_length_c       4.32301
_cell_angle_alpha    90
_cell_angle_beta     90
_cell_angle_gamma    120

_symmetry_Int_Tables_number  194
_chemical_formula_structural  Tc3Ni
_chemical_formula_sum  Tc6Ni2
_cell_volume  107.79234572578865
_cell_formula_units_Z  2
loop_
  _symmetry_equiv_pos_site_id
 _symmetry_equiv_pos_as_xyz
 1  'x, y, z'
loop_
 _atom_site_type_symbol
 _atom_site_label
 _atom_site_symmetry_multiplicity
 _atom_site_fract_x
 _atom_site_fract_y
 _atom_site_fract_z
 _atom_site_fract_occupancy
 Ni  Ni1  1  0.66667  0.33333  0.25000  1
 Ni  Ni2  1  0.33333  0.66667  0.75000  1
 Tc  Tc1  1  0.83359  0.66718  0.75000  1
 Tc  Tc2  1  0.16641  0.83359  0.25000  1
 Tc  Tc3  1  0.66718  0.83359  0.25000  1
 Tc  Tc4  1  0.16641  0.33282  0.25000  1
 Tc  Tc5  1  0.83359  0.16641  0.75000  1
 Tc  Tc6  1  0.33282  0.16641  0.75000  1
