CIF file written using JARVIS-Tools package.
data_TlNiF3
_symmetry_space_group_name_H-M  'Pm-3m'
_cell_length_a       4.11354
_cell_length_b       4.11357
_cell_length_c       4.1136
_cell_angle_alpha    89.996
_cell_angle_beta     90
_cell_angle_gamma    89.9978

_symmetry_Int_Tables_number  221
_chemical_formula_structural  TlNiF3
_chemical_formula_sum  TlNiF3
_cell_volume  69.60765531487858
_cell_formula_units_Z  1
loop_
  _symmetry_equiv_pos_site_id
 _symmetry_equiv_pos_as_xyz
 1  'x, y, z'
loop_
 _atom_site_type_symbol
 _atom_site_label
 _atom_site_symmetry_multiplicity
 _atom_site_fract_x
 _atom_site_fract_y
 _atom_site_fract_z
 _atom_site_fract_occupancy
 F  F1  1  -0.00000  0.49789  0.48803  1
 F  F2  1  0.50001  0.49797  0.98800  1
 F  F3  1  0.49996  0.99801  0.48807  1
 Ni  Ni1  1  0.50001  0.49810  0.48794  1
 Tl  Tl1  1  0.00002  0.99803  0.98796  1
