CIF file written using JARVIS-Tools package.
data_RbHCO2
_symmetry_space_group_name_H-M  'Pbcm'
_cell_length_a       4.61922
_cell_length_b       7.26922
_cell_length_c       9.19443
_cell_angle_alpha    90
_cell_angle_beta     90
_cell_angle_gamma    90

_symmetry_Int_Tables_number  57
_chemical_formula_structural  RbHCO2
_chemical_formula_sum  Rb4H4C4O8
_cell_volume  308.7316434597409
_cell_formula_units_Z  4
loop_
  _symmetry_equiv_pos_site_id
 _symmetry_equiv_pos_as_xyz
 1  'x, y, z'
loop_
 _atom_site_type_symbol
 _atom_site_label
 _atom_site_symmetry_multiplicity
 _atom_site_fract_x
 _atom_site_fract_y
 _atom_site_fract_z
 _atom_site_fract_occupancy
 C  C1  1  0.60392  0.75000  0.95392  1
 C  C2  1  0.60392  0.25000  0.54608  1
 C  C3  1  0.39608  0.75000  0.45392  1
 C  C4  1  0.39608  0.25000  0.04608  1
 H  H1  1  0.42309  0.75000  0.03495  1
 H  H2  1  0.42309  0.25000  0.46505  1
 H  H3  1  0.57691  0.75000  0.53495  1
 H  H4  1  0.57691  0.25000  0.96505  1
 O  O1  1  0.46502  0.75000  0.32026  1
 O  O2  1  0.46502  0.25000  0.17974  1
 O  O3  1  0.86051  0.75000  0.00332  1
 O  O4  1  0.86051  0.25000  0.49668  1
 O  O5  1  0.13949  0.75000  0.50332  1
 O  O6  1  0.53498  0.25000  0.67974  1
 O  O7  1  0.53498  0.75000  0.82026  1
 O  O8  1  0.13949  0.25000  0.99668  1
 Rb  Rb1  1  0.95076  0.00000  0.25000  1
 Rb  Rb2  1  0.04924  0.50000  0.75000  1
 Rb  Rb3  1  0.04924  0.00000  0.75000  1
 Rb  Rb4  1  0.95076  0.50000  0.25000  1
