CIF file written using JARVIS-Tools package.
data_Li2NiP2O7
_symmetry_space_group_name_H-M  'P-1'
_cell_length_a       5.10389
_cell_length_b       6.11927
_cell_length_c       8.56654
_cell_angle_alpha    71.6486
_cell_angle_beta     86.5293
_cell_angle_gamma    84.9558

_symmetry_Int_Tables_number  2
_chemical_formula_structural  Li2NiP2O7
_chemical_formula_sum  Li4Ni2P4O4
_cell_volume  252.80775156255424
_cell_formula_units_Z  2
loop_
  _symmetry_equiv_pos_site_id
 _symmetry_equiv_pos_as_xyz
 1  'x, y, z'
loop_
 _atom_site_type_symbol
 _atom_site_label
 _atom_site_symmetry_multiplicity
 _atom_site_fract_x
 _atom_site_fract_y
 _atom_site_fract_z
 _atom_site_fract_occupancy
 Li  Li1  1  0.79677  0.20853  0.46007  1
 Li  Li2  1  0.70040  0.05819  0.84222  1
 Li  Li3  1  0.29960  0.94181  0.15778  1
 Li  Li4  1  0.20323  0.79147  0.53993  1
 Ni  Ni1  1  0.75549  0.56482  0.73269  1
 Ni  Ni2  1  0.24451  0.43518  0.26731  1
 O  O1  1  0.92189  0.78713  0.83350  1
 O  O2  1  0.10582  0.46330  0.65833  1
 O  O3  1  0.72905  0.29533  0.94408  1
 O  O4  1  0.79423  0.84485  0.48233  1
 O  O5  1  0.74425  0.93380  0.16731  1
 O  O6  1  0.89418  0.53670  0.34167  1
 O  O7  1  0.59699  0.28829  0.24254  1
 O  O8  1  0.40301  0.71171  0.75746  1
 O  O9  1  0.20577  0.15515  0.51767  1
 O  O10  1  0.25575  0.06620  0.83269  1
 O  O11  1  0.58168  0.29646  0.63748  1
 O  O12  1  0.27095  0.70467  0.05592  1
 O  O13  1  0.41832  0.70354  0.36252  1
 O  O14  1  0.07811  0.21287  0.16650  1
 P  P1  1  0.21074  0.78981  0.87411  1
 P  P2  1  0.28476  0.25871  0.64846  1
 P  P3  1  0.71524  0.74129  0.35154  1
 P  P4  1  0.78926  0.21019  0.12589  1
