CIF file written using JARVIS-Tools package.
data_GeCl4
_symmetry_space_group_name_H-M  'P2_1/c'
_cell_length_a       9.50714
_cell_length_b       6.3678
_cell_length_c       9.58128
_cell_angle_alpha    90
_cell_angle_beta     102.123
_cell_angle_gamma    90

_symmetry_Int_Tables_number  14
_chemical_formula_structural  GeCl4
_chemical_formula_sum  Ge4Cl6
_cell_volume  567.1111026434779
_cell_formula_units_Z  4
loop_
  _symmetry_equiv_pos_site_id
 _symmetry_equiv_pos_as_xyz
 1  'x, y, z'
loop_
 _atom_site_type_symbol
 _atom_site_label
 _atom_site_symmetry_multiplicity
 _atom_site_fract_x
 _atom_site_fract_y
 _atom_site_fract_z
 _atom_site_fract_occupancy
 Cl  Cl1  1  0.43380  0.42614  0.81082  1
 Cl  Cl2  1  0.19044  0.39370  0.07760  1
 Cl  Cl3  1  0.80956  0.89370  0.42240  1
 Cl  Cl4  1  0.80956  0.60630  0.92240  1
 Cl  Cl5  1  0.19044  0.10630  0.57760  1
 Cl  Cl6  1  0.30684  0.58198  0.45686  1
 Cl  Cl7  1  0.92400  0.41782  0.30385  1
 Cl  Cl8  1  0.69316  0.08198  0.04314  1
 Cl  Cl9  1  0.30684  0.91802  0.95686  1
 Cl  Cl10  1  0.07600  0.91782  0.19615  1
 Cl  Cl11  1  0.56620  0.92614  0.68918  1
 Cl  Cl12  1  0.56620  0.57386  0.18918  1
 Cl  Cl13  1  0.43380  0.07386  0.31082  1
 Cl  Cl14  1  0.07600  0.58218  0.69615  1
 Cl  Cl15  1  0.92400  0.08218  0.80385  1
 Cl  Cl16  1  0.69316  0.41802  0.54314  1
 Ge  Ge1  1  0.25240  0.42323  0.63512  1
 Ge  Ge2  1  0.74760  0.92323  0.86488  1
 Ge  Ge3  1  0.74760  0.57677  0.36488  1
 Ge  Ge4  1  0.25240  0.07677  0.13512  1
