CIF file written using JARVIS-Tools package.
data_Sr3SiO5
_symmetry_space_group_name_H-M  'P4/ncc'
_cell_length_a       6.98599
_cell_length_b       6.98599
_cell_length_c       10.8614
_cell_angle_alpha    90
_cell_angle_beta     90
_cell_angle_gamma    90

_symmetry_Int_Tables_number  130
_chemical_formula_structural  Sr3SiO5
_chemical_formula_sum  Sr2Si4O20
_cell_volume  530.0817377681076
_cell_formula_units_Z  4
loop_
  _symmetry_equiv_pos_site_id
 _symmetry_equiv_pos_as_xyz
 1  'x, y, z'
loop_
 _atom_site_type_symbol
 _atom_site_label
 _atom_site_symmetry_multiplicity
 _atom_site_fract_x
 _atom_site_fract_y
 _atom_site_fract_z
 _atom_site_fract_occupancy
 O  O1  1  0.59772  0.66014  0.59250  1
 O  O2  1  0.83986  0.09772  0.59250  1
 O  O3  1  0.90228  0.16014  0.90750  1
 O  O4  1  0.09772  0.83986  0.90750  1
 O  O5  1  0.33986  0.59772  0.40750  1
 O  O6  1  0.09772  0.16014  0.40750  1
 O  O7  1  0.50000  0.00000  0.78102  1
 O  O8  1  0.33986  0.40228  0.90750  1
 O  O9  1  0.16014  0.09772  0.09250  1
 O  O10  1  0.59772  0.33986  0.09250  1
 O  O11  1  0.40228  0.66014  0.09250  1
 O  O12  1  0.00000  0.50000  0.21898  1
 O  O13  1  0.50000  0.00000  0.28102  1
 O  O14  1  0.40228  0.33986  0.59250  1
 O  O15  1  0.00000  0.50000  0.71898  1
 O  O16  1  0.66014  0.40228  0.40750  1
 O  O17  1  0.16014  0.90228  0.59250  1
 O  O18  1  0.66014  0.59772  0.90750  1
 O  O19  1  0.90228  0.83986  0.40750  1
 O  O20  1  0.83986  0.90228  0.09250  1
 Si  Si1  1  0.50000  0.50000  0.50000  1
 Si  Si2  1  0.00000  0.00000  0.50000  1
 Si  Si3  1  0.50000  0.50000  0.00000  1
 Si  Si4  1  0.00000  0.00000  0.00000  1
 Sr  Sr1  1  0.50000  0.00000  0.00902  1
 Sr  Sr2  1  0.50000  0.00000  0.50902  1
 Sr  Sr3  1  0.00000  0.50000  0.99098  1
 Sr  Sr4  1  0.68863  0.68863  0.25000  1
 Sr  Sr5  1  0.81137  0.18863  0.25000  1
 Sr  Sr6  1  0.81137  0.81137  0.75000  1
 Sr  Sr7  1  0.31137  0.31137  0.25000  1
 Sr  Sr8  1  0.68863  0.31137  0.75000  1
 Sr  Sr9  1  0.31137  0.68863  0.75000  1
 Sr  Sr10  1  0.18863  0.18863  0.75000  1
 Sr  Sr11  1  0.18863  0.81137  0.25000  1
 Sr  Sr12  1  0.00000  0.50000  0.49098  1
