CIF file written using JARVIS-Tools package.
data_RbCdCl3
_symmetry_space_group_name_H-M  'Pnma'
_cell_length_a       4.06252
_cell_length_b       8.92673
_cell_length_c       14.9635
_cell_angle_alpha    90
_cell_angle_beta     90
_cell_angle_gamma    90

_symmetry_Int_Tables_number  62
_chemical_formula_structural  RbCdCl3
_chemical_formula_sum  Rb4Cd4Cl2
_cell_volume  542.6524002470514
_cell_formula_units_Z  4
loop_
  _symmetry_equiv_pos_site_id
 _symmetry_equiv_pos_as_xyz
 1  'x, y, z'
loop_
 _atom_site_type_symbol
 _atom_site_label
 _atom_site_symmetry_multiplicity
 _atom_site_fract_x
 _atom_site_fract_y
 _atom_site_fract_z
 _atom_site_fract_occupancy
 Cd  Cd1  1  0.75000  0.33314  0.55735  1
 Cd  Cd2  1  0.25000  0.66686  0.44265  1
 Cd  Cd3  1  0.75000  0.83314  0.94265  1
 Cd  Cd4  1  0.25000  0.16686  0.05735  1
 Cl  Cl1  1  0.75000  0.97263  0.10155  1
 Cl  Cl2  1  0.75000  0.47263  0.39845  1
 Cl  Cl3  1  0.75000  0.21104  0.71034  1
 Cl  Cl4  1  0.25000  0.66766  0.00447  1
 Cl  Cl5  1  0.75000  0.33234  0.99553  1
 Cl  Cl6  1  0.75000  0.83234  0.50447  1
 Cl  Cl7  1  0.75000  0.71104  0.78966  1
 Cl  Cl8  1  0.25000  0.16766  0.49553  1
 Cl  Cl9  1  0.25000  0.52737  0.60155  1
 Cl  Cl10  1  0.25000  0.28896  0.21034  1
 Cl  Cl11  1  0.25000  0.02737  0.89845  1
 Cl  Cl12  1  0.25000  0.78896  0.28966  1
 Rb  Rb1  1  0.25000  0.42499  0.82628  1
 Rb  Rb2  1  0.75000  0.57501  0.17372  1
 Rb  Rb3  1  0.25000  0.92499  0.67372  1
 Rb  Rb4  1  0.75000  0.07501  0.32628  1
