CIF file written using JARVIS-Tools package.
data_LiMnPO4
_symmetry_space_group_name_H-M  'I-4'
_cell_length_a       4.2935
_cell_length_b       5.5457
_cell_length_c       4.2935
_cell_angle_alpha    67.2257
_cell_angle_beta     90
_cell_angle_gamma    112.774

_symmetry_Int_Tables_number  82
_chemical_formula_structural  LiMnPO4
_chemical_formula_sum  LiMnPO4
_cell_volume  85.55058586989783
_cell_formula_units_Z  1
loop_
  _symmetry_equiv_pos_site_id
 _symmetry_equiv_pos_as_xyz
 1  'x, y, z'
loop_
 _atom_site_type_symbol
 _atom_site_label
 _atom_site_symmetry_multiplicity
 _atom_site_fract_x
 _atom_site_fract_y
 _atom_site_fract_z
 _atom_site_fract_occupancy
 Li  Li1  1  0.50000  0.00000  0.50000  1
 Mn  Mn1  1  0.75000  0.50000  0.75000  1
 O  O1  1  0.31896  0.19389  0.09808  1
 O  O2  1  0.70803  0.80611  0.31896  1
 O  O3  1  0.87493  0.19389  0.70803  1
 O  O4  1  0.09808  0.80611  0.87493  1
 P  P1  1  0.00000  0.00000  0.00000  1
