CIF file written using JARVIS-Tools package.
data_Na2Zn2O3
_symmetry_space_group_name_H-M  'P4_32_12'
_cell_length_a       6.23267
_cell_length_b       6.23267
_cell_length_c       9.41532
_cell_angle_alpha    90
_cell_angle_beta     90
_cell_angle_gamma    90

_symmetry_Int_Tables_number  96
_chemical_formula_structural  Na2Zn2O3
_chemical_formula_sum  Na8Zn8O2
_cell_volume  365.749288041626
_cell_formula_units_Z  4
loop_
  _symmetry_equiv_pos_site_id
 _symmetry_equiv_pos_as_xyz
 1  'x, y, z'
loop_
 _atom_site_type_symbol
 _atom_site_label
 _atom_site_symmetry_multiplicity
 _atom_site_fract_x
 _atom_site_fract_y
 _atom_site_fract_z
 _atom_site_fract_occupancy
 Na  Na1  1  0.74639  0.52973  0.64485  1
 Na  Na2  1  0.97027  0.24639  0.39485  1
 Na  Na3  1  0.47027  0.25361  0.85515  1
 Na  Na4  1  0.25361  0.47027  0.14485  1
 Na  Na5  1  0.02973  0.75361  0.89485  1
 Na  Na6  1  0.75361  0.02973  0.10515  1
 Na  Na7  1  0.52973  0.74639  0.35515  1
 Na  Na8  1  0.24639  0.97027  0.60515  1
 O  O1  1  0.48693  0.75738  0.09468  1
 O  O2  1  0.75738  0.48693  0.90532  1
 O  O3  1  0.68208  0.31792  0.25000  1
 O  O4  1  0.01307  0.25738  0.65532  1
 O  O5  1  0.81792  0.81792  0.50000  1
 O  O6  1  0.51307  0.24262  0.59468  1
 O  O7  1  0.24262  0.51307  0.40532  1
 O  O8  1  0.98693  0.74262  0.15532  1
 O  O9  1  0.31792  0.68208  0.75000  1
 O  O10  1  0.18208  0.18208  0.00000  1
 O  O11  1  0.25738  0.01307  0.34468  1
 O  O12  1  0.74262  0.98693  0.84468  1
 Zn  Zn1  1  0.75497  0.04151  0.63516  1
 Zn  Zn2  1  0.25497  0.45849  0.61484  1
 Zn  Zn3  1  0.45849  0.25497  0.38516  1
 Zn  Zn4  1  0.54151  0.74503  0.88516  1
 Zn  Zn5  1  0.24503  0.95849  0.13516  1
 Zn  Zn6  1  0.95849  0.24503  0.86484  1
 Zn  Zn7  1  0.74503  0.54151  0.11484  1
 Zn  Zn8  1  0.04151  0.75497  0.36484  1
