CIF file written using JARVIS-Tools package.
data_MnPO4
_symmetry_space_group_name_H-M  'P3_121'
_cell_length_a       4.94221
_cell_length_b       4.94226
_cell_length_c       11.3934
_cell_angle_alpha    89.9978
_cell_angle_beta     90.001
_cell_angle_gamma    120.002

_symmetry_Int_Tables_number  152
_chemical_formula_structural  MnPO4
_chemical_formula_sum  Mn3P3O2
_cell_volume  241.0018172000499
_cell_formula_units_Z  3
loop_
  _symmetry_equiv_pos_site_id
 _symmetry_equiv_pos_as_xyz
 1  'x, y, z'
loop_
 _atom_site_type_symbol
 _atom_site_label
 _atom_site_symmetry_multiplicity
 _atom_site_fract_x
 _atom_site_fract_y
 _atom_site_fract_z
 _atom_site_fract_occupancy
 Mn  Mn1  1  0.00001  0.43548  0.66667  1
 Mn  Mn2  1  0.56453  0.56453  0.00000  1
 Mn  Mn3  1  0.43547  0.00001  0.33334  1
 O  O1  1  0.09620  0.64434  0.27183  1
 O  O2  1  0.09789  0.72312  0.79501  1
 O  O3  1  0.64435  0.09620  0.72818  1
 O  O4  1  0.35563  0.45181  0.60515  1
 O  O5  1  0.27686  0.37476  0.12834  1
 O  O6  1  0.62523  0.90210  0.46168  1
 O  O7  1  0.37477  0.27686  0.87167  1
 O  O8  1  0.54820  0.90382  0.93848  1
 O  O9  1  0.90211  0.62525  0.53833  1
 O  O10  1  0.90382  0.54819  0.06153  1
 O  O11  1  0.45182  0.35563  0.39486  1
 O  O12  1  0.72311  0.09789  0.20500  1
 P  P1  1  0.41551  -0.00000  0.83334  1
 P  P2  1  0.58448  0.58448  0.50000  1
 P  P3  1  0.00000  0.41552  0.16667  1
