CIF file written using JARVIS-Tools package.
data_LiVO2F2
_symmetry_space_group_name_H-M  'P2_1/m'
_cell_length_a       6.17356
_cell_length_b       3.4878
_cell_length_c       6.61369
_cell_angle_alpha    90
_cell_angle_beta     111.454
_cell_angle_gamma    90

_symmetry_Int_Tables_number  11
_chemical_formula_structural  LiVO2F2
_chemical_formula_sum  Li2V2O4F4
_cell_volume  132.53941133431778
_cell_formula_units_Z  2
loop_
  _symmetry_equiv_pos_site_id
 _symmetry_equiv_pos_as_xyz
 1  'x, y, z'
loop_
 _atom_site_type_symbol
 _atom_site_label
 _atom_site_symmetry_multiplicity
 _atom_site_fract_x
 _atom_site_fract_y
 _atom_site_fract_z
 _atom_site_fract_occupancy
 F  F1  1  0.14303  0.26051  0.74182  1
 F  F2  1  0.60554  0.26071  0.88524  1
 F  F3  1  0.39446  0.76071  0.11476  1
 F  F4  1  0.85697  0.76051  0.25818  1
 Li  Li1  1  0.33934  0.75982  0.80269  1
 Li  Li2  1  0.66066  0.25982  0.19731  1
 O  O1  1  0.10121  0.26001  0.15283  1
 O  O2  1  0.31310  0.75901  0.49207  1
 O  O3  1  0.68690  0.25901  0.50793  1
 O  O4  1  0.89879  0.76001  0.84717  1
 V  V1  1  0.15445  0.75895  0.23670  1
 V  V2  1  0.84555  0.25895  0.76330  1
