CIF file written using JARVIS-Tools package.
data_CaLa2SnO6
_symmetry_space_group_name_H-M  'R-3'
_cell_length_a       5.86429
_cell_length_b       5.86429
_cell_length_c       5.86428
_cell_angle_alpha    61.4196
_cell_angle_beta     61.4195
_cell_angle_gamma    61.4196

_symmetry_Int_Tables_number  148
_chemical_formula_structural  CaLa2SnO6
_chemical_formula_sum  CaLa2SnO6
_cell_volume  147.15023860576343
_cell_formula_units_Z  1
loop_
  _symmetry_equiv_pos_site_id
 _symmetry_equiv_pos_as_xyz
 1  'x, y, z'
loop_
 _atom_site_type_symbol
 _atom_site_label
 _atom_site_symmetry_multiplicity
 _atom_site_fract_x
 _atom_site_fract_y
 _atom_site_fract_z
 _atom_site_fract_occupancy
 Ca  Ca1  1  0.50000  0.50000  0.50000  1
 La  La1  1  0.76375  0.76375  0.76375  1
 La  La2  1  0.23625  0.23625  0.23625  1
 O  O1  1  0.34391  0.78406  0.13011  1
 O  O2  1  0.78406  0.13011  0.34391  1
 O  O3  1  0.13011  0.34391  0.78406  1
 O  O4  1  0.65609  0.21594  0.86989  1
 O  O5  1  0.86989  0.65609  0.21594  1
 O  O6  1  0.21594  0.86989  0.65609  1
 Sn  Sn1  1  0.00000  0.00000  0.00000  1
