CIF file written using JARVIS-Tools package.
data_BaSO3
_symmetry_space_group_name_H-M  'P2_1/m'
_cell_length_a       4.68125
_cell_length_b       5.52439
_cell_length_c       6.64085
_cell_angle_alpha    90
_cell_angle_beta     105.931
_cell_angle_gamma    90

_symmetry_Int_Tables_number  11
_chemical_formula_structural  BaSO3
_chemical_formula_sum  Ba2S2O6
_cell_volume  165.14285275548306
_cell_formula_units_Z  2
loop_
  _symmetry_equiv_pos_site_id
 _symmetry_equiv_pos_as_xyz
 1  'x, y, z'
loop_
 _atom_site_type_symbol
 _atom_site_label
 _atom_site_symmetry_multiplicity
 _atom_site_fract_x
 _atom_site_fract_y
 _atom_site_fract_z
 _atom_site_fract_occupancy
 Ba  Ba1  1  0.65821  0.25000  0.27439  1
 Ba  Ba2  1  0.34179  0.75000  0.72561  1
 O  O1  1  0.73508  0.75000  0.13040  1
 O  O2  1  0.81963  0.47003  0.68225  1
 O  O3  1  0.81963  0.02997  0.68225  1
 O  O4  1  0.18037  0.97003  0.31775  1
 O  O5  1  0.18037  0.52997  0.31775  1
 O  O6  1  0.26492  0.25000  0.86960  1
 S  S1  1  0.92290  0.25000  0.82666  1
 S  S2  1  0.07710  0.75000  0.17334  1
