CIF file written using JARVIS-Tools package.
data_AlSbI6
_symmetry_space_group_name_H-M  'C2/m'
_cell_length_a       7.29526
_cell_length_b       10.2492
_cell_length_c       10.2492
_cell_angle_alpha    79.8133
_cell_angle_beta     70.4442
_cell_angle_gamma    70.4441

_symmetry_Int_Tables_number  12
_chemical_formula_structural  AlSbI6
_chemical_formula_sum  Al2Sb2I2
_cell_volume  678.6654926885047
_cell_formula_units_Z  2
loop_
  _symmetry_equiv_pos_site_id
 _symmetry_equiv_pos_as_xyz
 1  'x, y, z'
loop_
 _atom_site_type_symbol
 _atom_site_label
 _atom_site_symmetry_multiplicity
 _atom_site_fract_x
 _atom_site_fract_y
 _atom_site_fract_z
 _atom_site_fract_occupancy
 Al  Al1  1  0.37442  0.79578  0.79578  1
 Al  Al2  1  0.62558  0.20422  0.20422  1
 I  I1  1  0.06679  0.78328  0.45444  1
 I  I2  1  0.93321  0.54556  0.21672  1
 I  I3  1  0.93321  0.21672  0.54556  1
 I  I4  1  0.06679  0.45444  0.78328  1
 I  I5  1  0.53381  0.97164  0.29062  1
 I  I6  1  0.46619  0.70938  0.02836  1
 I  I7  1  0.46619  0.02836  0.70938  1
 I  I8  1  0.53381  0.29062  0.97164  1
 I  I9  1  0.01859  0.14506  0.14506  1
 I  I10  1  0.98141  0.85494  0.85494  1
 I  I11  1  0.44208  0.38014  0.38014  1
 I  I12  1  0.55792  0.61986  0.61986  1
 Sb  Sb1  1  -0.00000  0.20049  0.79951  1
 Sb  Sb2  1  0.00000  0.79951  0.20049  1
