CIF file written using JARVIS-Tools package.
data_Li2NiPO4F
_symmetry_space_group_name_H-M  'C2'
_cell_length_a       5.29697
_cell_length_b       5.29743
_cell_length_c       7.30953
_cell_angle_alpha    108.745
_cell_angle_beta     108.746
_cell_angle_gamma    94.3887

_symmetry_Int_Tables_number  5
_chemical_formula_structural  Li2NiPO4F
_chemical_formula_sum  Li4Ni2P2O8F2
_cell_volume  180.18991639817
_cell_formula_units_Z  2
loop_
  _symmetry_equiv_pos_site_id
 _symmetry_equiv_pos_as_xyz
 1  'x, y, z'
loop_
 _atom_site_type_symbol
 _atom_site_label
 _atom_site_symmetry_multiplicity
 _atom_site_fract_x
 _atom_site_fract_y
 _atom_site_fract_z
 _atom_site_fract_occupancy
 F  F1  1  0.13038  0.87308  0.26898  1
 F  F2  1  0.86114  0.14198  0.76893  1
 Li  Li1  1  0.78053  0.47237  0.67631  1
 Li  Li2  1  0.09577  0.52164  0.07880  1
 Li  Li3  1  0.53088  0.22242  0.86160  1
 Li  Li4  1  0.48175  0.90781  0.45927  1
 Ni  Ni1  1  0.00539  0.00135  0.02212  1
 Ni  Ni2  1  0.00195  0.99792  0.51577  1
 O  O1  1  0.71939  0.64405  0.43158  1
 O  O2  1  0.65522  0.70563  0.91242  1
 O  O3  1  0.84422  0.31617  0.14459  1
 O  O4  1  0.68729  0.15942  0.39347  1
 O  O5  1  0.29802  0.34798  0.62576  1
 O  O6  1  0.32384  0.85629  0.65660  1
 O  O7  1  0.14669  0.67926  0.88118  1
 O  O8  1  0.35938  0.28368  0.10612  1
 P  P1  1  0.65339  0.35001  0.26894  1
 P  P2  1  0.35266  0.65057  0.76899  1
