CIF file written using JARVIS-Tools package.
data_VH2O2
_symmetry_space_group_name_H-M  'Pnnm'
_cell_length_a       4.75253
_cell_length_b       3.26139
_cell_length_c       5.32468
_cell_angle_alpha    90
_cell_angle_beta     90.0004
_cell_angle_gamma    90

_symmetry_Int_Tables_number  58
_chemical_formula_structural  VH2O2
_chemical_formula_sum  V2H4O4
_cell_volume  82.53171491899846
_cell_formula_units_Z  2
loop_
  _symmetry_equiv_pos_site_id
 _symmetry_equiv_pos_as_xyz
 1  'x, y, z'
loop_
 _atom_site_type_symbol
 _atom_site_label
 _atom_site_symmetry_multiplicity
 _atom_site_fract_x
 _atom_site_fract_y
 _atom_site_fract_z
 _atom_site_fract_occupancy
 H  H1  1  0.02062  0.50000  0.33505  1
 H  H2  1  0.97938  0.50000  0.66495  1
 H  H3  1  0.47938  0.00000  0.83504  1
 H  H4  1  0.52062  0.00000  0.16496  1
 O  O1  1  0.15223  0.50000  0.76708  1
 O  O2  1  0.34777  0.00000  0.26708  1
 O  O3  1  0.65223  0.00000  0.73292  1
 O  O4  1  0.84777  0.50000  0.23292  1
 V  V1  1  0.50000  0.50000  0.50000  1
 V  V2  1  0.00000  0.00000  0.00000  1
