CIF file written using JARVIS-Tools package.
data_CaBi2O4
_symmetry_space_group_name_H-M  'F222'
_cell_length_a       7.08148
_cell_length_b       7.08223
_cell_length_c       7.07749
_cell_angle_alpha    119.703
_cell_angle_beta     119.698
_cell_angle_gamma    90.5552

_symmetry_Int_Tables_number  22
_chemical_formula_structural  CaBi2O4
_chemical_formula_sum  Ca2Bi4O8
_cell_volume  252.03739193987028
_cell_formula_units_Z  2
loop_
  _symmetry_equiv_pos_site_id
 _symmetry_equiv_pos_as_xyz
 1  'x, y, z'
loop_
 _atom_site_type_symbol
 _atom_site_label
 _atom_site_symmetry_multiplicity
 _atom_site_fract_x
 _atom_site_fract_y
 _atom_site_fract_z
 _atom_site_fract_occupancy
 Bi  Bi1  1  0.00113  0.48798  0.48792  1
 Bi  Bi2  1  0.98677  -0.00003  0.48786  1
 Bi  Bi3  1  0.01206  0.49888  0.01206  1
 Bi  Bi4  1  0.50003  0.51316  0.01203  1
 Ca  Ca1  1  0.62500  0.87500  0.74996  1
 Ca  Ca2  1  0.37498  0.12499  0.24996  1
 O  O1  1  0.26630  0.72897  0.00923  1
 O  O2  1  0.21989  0.25724  0.49091  1
 O  O3  1  0.77102  0.23369  0.49099  1
 O  O4  1  0.75286  0.76511  0.03570  1
 O  O5  1  0.22932  0.71708  0.46428  1
 O  O6  1  0.73499  0.74711  0.46424  1
 O  O7  1  0.24284  0.28017  0.00910  1
 O  O8  1  0.78282  0.27066  0.03579  1
