CIF file written using JARVIS-Tools package.
data_Li4V3Fe5O16
_symmetry_space_group_name_H-M  'P1'
_cell_length_a       5.59445
_cell_length_b       5.58237
_cell_length_c       9.61892
_cell_angle_alpha    90.2648
_cell_angle_beta     89.7261
_cell_angle_gamma    61.3426

_symmetry_Int_Tables_number  1
_chemical_formula_structural  Li4V3Fe5O16
_chemical_formula_sum  Li4V3Fe5O6
_cell_volume  263.59187007291814
_cell_formula_units_Z  1
loop_
  _symmetry_equiv_pos_site_id
 _symmetry_equiv_pos_as_xyz
 1  'x, y, z'
loop_
 _atom_site_type_symbol
 _atom_site_label
 _atom_site_symmetry_multiplicity
 _atom_site_fract_x
 _atom_site_fract_y
 _atom_site_fract_z
 _atom_site_fract_occupancy
 Fe  Fe1  1  0.18224  0.17860  0.71088  1
 Fe  Fe2  1  0.34219  0.83505  0.21168  1
 Fe  Fe3  1  0.66107  0.65312  0.49624  1
 Fe  Fe4  1  0.83053  0.34814  0.21336  1
 Fe  Fe5  1  0.33858  0.33381  0.00403  1
 Li  Li1  1  0.66418  0.66574  0.89804  1
 Li  Li2  1  0.33241  0.34064  0.39034  1
 Li  Li3  1  0.00988  -0.00169  0.49265  1
 Li  Li4  1  0.00421  0.00194  0.99412  1
 O  O1  1  0.66377  0.66326  0.09404  1
 O  O2  1  0.32573  0.83826  0.60533  1
 O  O3  1  0.51583  0.52756  0.32893  1
 O  O4  1  -0.00289  0.00518  0.30610  1
 O  O5  1  0.00264  0.00187  0.80631  1
 O  O6  1  0.84455  0.31836  0.60589  1
 O  O7  1  0.48453  0.48604  0.83190  1
 O  O8  1  0.96929  0.52205  0.34049  1
 O  O9  1  0.34113  0.33554  0.58822  1
 O  O10  1  0.83610  0.83099  0.60401  1
 O  O11  1  0.02951  0.48454  0.83993  1
 O  O12  1  0.48364  0.03164  0.84062  1
 O  O13  1  0.51243  0.97793  0.33658  1
 O  O14  1  0.16043  0.67757  0.10500  1
 O  O15  1  0.16559  0.16393  0.10867  1
 O  O16  1  0.67900  0.15995  0.10582  1
 V  V1  1  0.64333  0.16607  0.71427  1
 V  V2  1  0.17001  0.63838  0.71606  1
 V  V3  1  0.80980  0.81580  0.21831  1
