CIF file written using JARVIS-Tools package.
data_Ca3AlN3
_symmetry_space_group_name_H-M  'P2_1/c'
_cell_length_a       6.87555
_cell_length_b       6.11392
_cell_length_c       9.80334
_cell_angle_alpha    90
_cell_angle_beta     93.7225
_cell_angle_gamma    90

_symmetry_Int_Tables_number  14
_chemical_formula_structural  Ca3AlN3
_chemical_formula_sum  Ca2Al4N2
_cell_volume  411.2296734174542
_cell_formula_units_Z  4
loop_
  _symmetry_equiv_pos_site_id
 _symmetry_equiv_pos_as_xyz
 1  'x, y, z'
loop_
 _atom_site_type_symbol
 _atom_site_label
 _atom_site_symmetry_multiplicity
 _atom_site_fract_x
 _atom_site_fract_y
 _atom_site_fract_z
 _atom_site_fract_occupancy
 Al  Al1  1  0.16015  0.09139  0.56074  1
 Al  Al2  1  0.83985  0.90861  0.43926  1
 Al  Al3  1  0.16015  0.40861  0.06074  1
 Al  Al4  1  0.83985  0.59139  0.93926  1
 Ca  Ca1  1  0.07592  0.85901  0.15009  1
 Ca  Ca2  1  0.92408  0.35901  0.34991  1
 Ca  Ca3  1  0.92408  0.14099  0.84991  1
 Ca  Ca4  1  0.07592  0.64099  0.65009  1
 Ca  Ca5  1  0.64619  0.78238  0.69456  1
 Ca  Ca6  1  0.62727  0.20647  0.07645  1
 Ca  Ca7  1  0.62727  0.29353  0.57645  1
 Ca  Ca8  1  0.37273  0.79353  0.92355  1
 Ca  Ca9  1  0.64619  0.71762  0.19456  1
 Ca  Ca10  1  0.35381  0.21762  0.30544  1
 Ca  Ca11  1  0.35381  0.28238  0.80544  1
 Ca  Ca12  1  0.37273  0.70647  0.42355  1
 N  N1  1  0.89586  0.03811  0.61779  1
 N  N2  1  0.10414  0.53811  0.88221  1
 N  N3  1  0.74076  0.87727  0.97093  1
 N  N4  1  0.25924  0.37727  0.52907  1
 N  N5  1  0.25924  0.12273  0.02907  1
 N  N6  1  0.66064  0.43158  0.82275  1
 N  N7  1  0.33936  0.93158  0.67725  1
 N  N8  1  0.66064  0.06842  0.32275  1
 N  N9  1  0.33936  0.56842  0.17725  1
 N  N10  1  0.89586  0.46189  0.11779  1
 N  N11  1  0.74076  0.62273  0.47093  1
 N  N12  1  0.10414  0.96189  0.38221  1
