CIF file written using JARVIS-Tools package.
data_Fe2P2O7
_symmetry_space_group_name_H-M  'P-1'
_cell_length_a       4.59927
_cell_length_b       5.21296
_cell_length_c       5.40792
_cell_angle_alpha    103.216
_cell_angle_beta     97.4485
_cell_angle_gamma    98.5356

_symmetry_Int_Tables_number  2
_chemical_formula_structural  Fe2P2O7
_chemical_formula_sum  Fe2P2O7
_cell_volume  123.01263040799992
_cell_formula_units_Z  1
loop_
  _symmetry_equiv_pos_site_id
 _symmetry_equiv_pos_as_xyz
 1  'x, y, z'
loop_
 _atom_site_type_symbol
 _atom_site_label
 _atom_site_symmetry_multiplicity
 _atom_site_fract_x
 _atom_site_fract_y
 _atom_site_fract_z
 _atom_site_fract_occupancy
 Fe  Fe1  1  0.54049  0.60453  0.30987  1
 Fe  Fe2  1  0.51778  0.25786  0.69039  1
 O  O1  1  0.82602  0.55168  0.62736  1
 O  O2  1  0.30889  0.86684  0.62807  1
 O  O3  1  0.30834  0.54938  0.92128  1
 O  O4  1  0.02925  0.93162  0.99951  1
 O  O5  1  0.23244  0.31044  0.37266  1
 O  O6  1  0.74974  0.99509  0.37146  1
 O  O7  1  0.75001  0.31327  0.07898  1
 P  P1  1  0.12501  0.71568  0.78420  1
 P  P2  1  0.93344  0.14670  0.21562  1
