CIF file written using JARVIS-Tools package.
data_Li3VPCO7
_symmetry_space_group_name_H-M  'P2_1'
_cell_length_a       4.86943
_cell_length_b       6.19376
_cell_length_c       8.70329
_cell_angle_alpha    90
_cell_angle_beta     93.6964
_cell_angle_gamma    90

_symmetry_Int_Tables_number  4
_chemical_formula_structural  Li3VPCO7
_chemical_formula_sum  Li6V2P2C2O4
_cell_volume  261.9459414132153
_cell_formula_units_Z  2
loop_
  _symmetry_equiv_pos_site_id
 _symmetry_equiv_pos_as_xyz
 1  'x, y, z'
loop_
 _atom_site_type_symbol
 _atom_site_label
 _atom_site_symmetry_multiplicity
 _atom_site_fract_x
 _atom_site_fract_y
 _atom_site_fract_z
 _atom_site_fract_occupancy
 C  C1  1  0.79186  0.80383  0.97603  1
 C  C2  1  0.20814  0.30383  0.02397  1
 Li  Li1  1  0.67847  0.41071  0.87299  1
 Li  Li2  1  0.19638  0.42830  0.68537  1
 Li  Li3  1  0.73364  0.71488  0.63440  1
 Li  Li4  1  0.26636  0.21488  0.36560  1
 Li  Li5  1  0.80362  0.92830  0.31463  1
 Li  Li6  1  0.32153  0.91071  0.12701  1
 O  O1  1  0.70242  0.79046  0.11521  1
 O  O2  1  0.29758  0.29046  0.88479  1
 O  O3  1  0.62131  0.76105  0.85971  1
 O  O4  1  0.86098  0.01150  0.64605  1
 O  O5  1  0.80594  0.41156  0.66485  1
 O  O6  1  0.04716  0.85007  0.95904  1
 O  O7  1  0.39067  0.18182  0.59448  1
 O  O8  1  0.60933  0.68182  0.40552  1
 O  O9  1  0.37869  0.26105  0.14029  1
 O  O10  1  0.19406  0.91156  0.33515  1
 O  O11  1  0.13902  0.51150  0.35395  1
 O  O12  1  0.26200  0.71260  0.60072  1
 O  O13  1  0.73800  0.21260  0.39928  1
 O  O14  1  -0.04716  0.35007  0.04096  1
 P  P1  1  0.70545  0.20736  0.57646  1
 P  P2  1  0.29455  0.70736  0.42354  1
 V  V1  1  0.75498  0.46585  0.23856  1
 V  V2  1  0.24502  0.96585  0.76144  1
