CIF file written using JARVIS-Tools package.
data_NaVSiCO7
_symmetry_space_group_name_H-M  'P2_1'
_cell_length_a       5.3896
_cell_length_b       6.40146
_cell_length_c       8.48719
_cell_angle_alpha    90
_cell_angle_beta     89.0284
_cell_angle_gamma    90

_symmetry_Int_Tables_number  4
_chemical_formula_structural  NaVSiCO7
_chemical_formula_sum  Na2V2Si2C2O4
_cell_volume  292.7768432161893
_cell_formula_units_Z  2
loop_
  _symmetry_equiv_pos_site_id
 _symmetry_equiv_pos_as_xyz
 1  'x, y, z'
loop_
 _atom_site_type_symbol
 _atom_site_label
 _atom_site_symmetry_multiplicity
 _atom_site_fract_x
 _atom_site_fract_y
 _atom_site_fract_z
 _atom_site_fract_occupancy
 C  C1  1  0.38098  0.25822  0.06309  1
 C  C2  1  0.61902  0.75822  0.93691  1
 Na  Na1  1  0.85136  0.51810  0.16428  1
 Na  Na2  1  0.14864  0.01810  0.83572  1
 O  O1  1  0.55412  0.75789  0.07691  1
 O  O2  1  0.14263  0.23908  0.11170  1
 O  O3  1  0.85737  0.73908  0.88830  1
 O  O4  1  0.23148  0.95455  0.33326  1
 O  O5  1  0.21359  0.53804  0.32786  1
 O  O6  1  0.52435  0.26987  0.18626  1
 O  O7  1  0.56434  0.74430  0.49820  1
 O  O8  1  0.43566  0.24430  0.50180  1
 O  O9  1  0.78641  0.03804  0.67214  1
 O  O10  1  0.91355  0.24932  0.41182  1
 O  O11  1  0.76852  0.45455  0.66674  1
 O  O12  1  0.47565  0.76987  0.81374  1
 O  O13  1  0.08645  0.74932  0.58818  1
 O  O14  1  0.44588  0.25789  0.92309  1
 Si  Si1  1  0.72355  0.23868  0.56621  1
 Si  Si2  1  0.27645  0.73868  0.43379  1
 V  V1  1  0.77198  0.73410  0.66229  1
 V  V2  1  0.22802  0.23410  0.33771  1
