CIF file written using JARVIS-Tools package.
data_ScInO3
_symmetry_space_group_name_H-M  'P6_3/mmc'
_cell_length_a       3.45738
_cell_length_b       3.4573
_cell_length_c       12.6615
_cell_angle_alpha    89.9994
_cell_angle_beta     89.9993
_cell_angle_gamma    119.999

_symmetry_Int_Tables_number  194
_chemical_formula_structural  ScInO3
_chemical_formula_sum  Sc2In2O6
_cell_volume  131.0702160013939
_cell_formula_units_Z  2
loop_
  _symmetry_equiv_pos_site_id
 _symmetry_equiv_pos_as_xyz
 1  'x, y, z'
loop_
 _atom_site_type_symbol
 _atom_site_label
 _atom_site_symmetry_multiplicity
 _atom_site_fract_x
 _atom_site_fract_y
 _atom_site_fract_z
 _atom_site_fract_occupancy
 In  In1  1  -0.00000  0.00016  0.00000  1
 In  In2  1  0.00002  0.99985  0.50000  1
 O  O1  1  0.00002  0.99996  0.25000  1
 O  O2  1  0.99996  0.99993  0.75000  1
 O  O3  1  0.33334  0.66652  0.58211  1
 O  O4  1  0.33333  0.66681  0.91789  1
 O  O5  1  0.66669  0.33320  0.41789  1
 O  O6  1  0.66666  0.33348  0.08211  1
 Sc  Sc1  1  0.33332  0.66661  0.75000  1
 Sc  Sc2  1  0.66666  0.33328  0.25000  1
