CIF file written using JARVIS-Tools package.
data_LiLu3
_symmetry_space_group_name_H-M  'P6_3/mmc'
_cell_length_a       6.76139
_cell_length_b       6.76122
_cell_length_c       5.34271
_cell_angle_alpha    89.9964
_cell_angle_beta     90.0079
_cell_angle_gamma    120

_symmetry_Int_Tables_number  194
_chemical_formula_structural  LiLu3
_chemical_formula_sum  Li2Lu6
_cell_volume  211.52081058517487
_cell_formula_units_Z  2
loop_
  _symmetry_equiv_pos_site_id
 _symmetry_equiv_pos_as_xyz
 1  'x, y, z'
loop_
 _atom_site_type_symbol
 _atom_site_label
 _atom_site_symmetry_multiplicity
 _atom_site_fract_x
 _atom_site_fract_y
 _atom_site_fract_z
 _atom_site_fract_occupancy
 Li  Li1  1  0.66667  0.33332  0.25000  1
 Li  Li2  1  0.33334  0.66668  0.75000  1
 Lu  Lu1  1  0.83247  0.16757  0.74997  1
 Lu  Lu2  1  0.33510  0.16755  0.75003  1
 Lu  Lu3  1  0.83245  0.66490  0.75000  1
 Lu  Lu4  1  0.16753  0.83243  0.25003  1
 Lu  Lu5  1  0.66490  0.83245  0.24997  1
 Lu  Lu6  1  0.16755  0.33509  0.25000  1
