CIF file written using JARVIS-Tools package.
data_TaHgS2
_symmetry_space_group_name_H-M  'R-3m'
_cell_length_a       3.37816
_cell_length_b       3.37816
_cell_length_c       9.24303
_cell_angle_alpha    79.4705
_cell_angle_beta     79.4705
_cell_angle_gamma    60

_symmetry_Int_Tables_number  166
_chemical_formula_structural  TaHgS2
_chemical_formula_sum  TaHgS2
_cell_volume  89.29230577823701
_cell_formula_units_Z  1
loop_
  _symmetry_equiv_pos_site_id
 _symmetry_equiv_pos_as_xyz
 1  'x, y, z'
loop_
 _atom_site_type_symbol
 _atom_site_label
 _atom_site_symmetry_multiplicity
 _atom_site_fract_x
 _atom_site_fract_y
 _atom_site_fract_z
 _atom_site_fract_occupancy
 Hg  Hg1  1  0.50000  0.50000  0.50000  1
 S  S1  1  0.72346  0.72346  0.82963  1
 S  S2  1  0.27654  0.27654  0.17037  1
 Ta  Ta1  1  0.00000  0.00000  0.00000  1
