CIF file written using JARVIS-Tools package.
data_CrO2
_symmetry_space_group_name_H-M  'Fd-3m'
_cell_length_a       5.76287
_cell_length_b       5.76269
_cell_length_c       5.76277
_cell_angle_alpha    60.0005
_cell_angle_beta     59.9974
_cell_angle_gamma    59.9968

_symmetry_Int_Tables_number  227
_chemical_formula_structural  CrO2
_chemical_formula_sum  Cr4O8
_cell_volume  135.32013718599922
_cell_formula_units_Z  4
loop_
  _symmetry_equiv_pos_site_id
 _symmetry_equiv_pos_as_xyz
 1  'x, y, z'
loop_
 _atom_site_type_symbol
 _atom_site_label
 _atom_site_symmetry_multiplicity
 _atom_site_fract_x
 _atom_site_fract_y
 _atom_site_fract_z
 _atom_site_fract_occupancy
 Cr  Cr1  1  0.50001  -0.00000  0.49999  1
 Cr  Cr2  1  0.50001  0.50001  0.00000  1
 Cr  Cr3  1  -0.00000  0.49999  0.49999  1
 Cr  Cr4  1  0.49999  0.49999  0.50003  1
 O  O1  1  0.26512  0.26511  0.26510  1
 O  O2  1  0.70467  0.26511  0.26511  1
 O  O3  1  0.26510  0.70467  0.26512  1
 O  O4  1  0.26510  0.26511  0.70467  1
 O  O5  1  0.73489  0.29533  0.73489  1
 O  O6  1  0.73489  0.73488  0.29533  1
 O  O7  1  0.29533  0.73489  0.73490  1
 O  O8  1  0.73489  0.73489  0.73489  1
