CIF file written using JARVIS-Tools package.
data_Rb4SnO4
_symmetry_space_group_name_H-M  'P-1'
_cell_length_a       6.79584
_cell_length_b       6.82191
_cell_length_c       10.1731
_cell_angle_alpha    71.4475
_cell_angle_beta     78.7306
_cell_angle_gamma    66.5131

_symmetry_Int_Tables_number  2
_chemical_formula_structural  Rb4SnO4
_chemical_formula_sum  Rb8Sn2O8
_cell_volume  408.7974413139875
_cell_formula_units_Z  2
loop_
  _symmetry_equiv_pos_site_id
 _symmetry_equiv_pos_as_xyz
 1  'x, y, z'
loop_
 _atom_site_type_symbol
 _atom_site_label
 _atom_site_symmetry_multiplicity
 _atom_site_fract_x
 _atom_site_fract_y
 _atom_site_fract_z
 _atom_site_fract_occupancy
 O  O1  1  0.54584  0.14926  0.64685  1
 O  O2  1  0.53341  0.66362  0.81132  1
 O  O3  1  0.46659  0.33638  0.18868  1
 O  O4  1  0.96384  0.69679  0.62575  1
 O  O5  1  0.03616  0.30321  0.37425  1
 O  O6  1  0.12880  0.16032  0.09523  1
 O  O7  1  0.87120  0.83968  0.90477  1
 O  O8  1  0.45416  0.85074  0.35315  1
 Rb  Rb1  1  0.74187  0.59160  0.16413  1
 Rb  Rb2  1  0.78977  0.03011  0.37694  1
 Rb  Rb3  1  0.72120  0.49196  0.55905  1
 Rb  Rb4  1  0.27880  0.50804  0.44095  1
 Rb  Rb5  1  0.23529  0.76060  0.03280  1
 Rb  Rb6  1  0.76471  0.23940  0.96720  1
 Rb  Rb7  1  0.25813  0.40840  0.83587  1
 Rb  Rb8  1  0.21023  0.96989  0.62306  1
 Sn  Sn1  1  0.72282  0.84393  0.75238  1
 Sn  Sn2  1  0.27718  0.15607  0.24762  1
