CIF file written using JARVIS-Tools package.
data_Li2Si2NiO6
_symmetry_space_group_name_H-M  'P2_1'
_cell_length_a       5.32619
_cell_length_b       4.65858
_cell_length_c       9.54149
_cell_angle_alpha    90
_cell_angle_beta     93.7136
_cell_angle_gamma    90

_symmetry_Int_Tables_number  4
_chemical_formula_structural  Li2Si2NiO6
_chemical_formula_sum  Li4Si4Ni2O2
_cell_volume  236.25094377564574
_cell_formula_units_Z  2
loop_
  _symmetry_equiv_pos_site_id
 _symmetry_equiv_pos_as_xyz
 1  'x, y, z'
loop_
 _atom_site_type_symbol
 _atom_site_label
 _atom_site_symmetry_multiplicity
 _atom_site_fract_x
 _atom_site_fract_y
 _atom_site_fract_z
 _atom_site_fract_occupancy
 Li  Li1  1  0.67089  0.19577  0.32550  1
 Li  Li2  1  0.83915  0.70808  0.48212  1
 Li  Li3  1  0.16085  0.20808  0.51788  1
 Li  Li4  1  0.32911  0.69577  0.67450  1
 Ni  Ni1  1  0.61846  0.61983  0.11094  1
 Ni  Ni2  1  0.38154  0.11983  0.88906  1
 O  O1  1  0.15663  0.80786  0.83808  1
 O  O2  1  0.84337  0.30786  0.16192  1
 O  O3  1  0.14976  0.86855  0.20640  1
 O  O4  1  0.27187  0.35779  0.32591  1
 O  O5  1  0.32946  0.32329  0.05843  1
 O  O6  1  0.19791  0.80139  0.49008  1
 O  O7  1  0.80209  0.30139  0.50992  1
 O  O8  1  0.85024  0.36855  0.79360  1
 O  O9  1  0.72813  0.85779  0.67409  1
 O  O10  1  0.60534  0.77885  0.31902  1
 O  O11  1  0.39466  0.27885  0.68098  1
 O  O12  1  0.67054  0.82329  0.94157  1
 Si  Si1  1  0.86516  0.71882  0.82453  1
 Si  Si2  1  0.69011  0.21546  0.65673  1
 Si  Si3  1  0.30989  0.71546  0.34327  1
 Si  Si4  1  0.13484  0.21882  0.17547  1
