CIF file written using JARVIS-Tools package.
data_PrI3
_symmetry_space_group_name_H-M  'P6_3/mmc'
_cell_length_a       10.4948
_cell_length_b       10.4948
_cell_length_c       4.17068
_cell_angle_alpha    90
_cell_angle_beta     90
_cell_angle_gamma    120

_symmetry_Int_Tables_number  194
_chemical_formula_structural  PrI3
_chemical_formula_sum  Pr2I6
_cell_volume  397.8166078843644
_cell_formula_units_Z  2
loop_
  _symmetry_equiv_pos_site_id
 _symmetry_equiv_pos_as_xyz
 1  'x, y, z'
loop_
 _atom_site_type_symbol
 _atom_site_label
 _atom_site_symmetry_multiplicity
 _atom_site_fract_x
 _atom_site_fract_y
 _atom_site_fract_z
 _atom_site_fract_occupancy
 I  I1  1  0.20258  0.40515  0.25000  1
 I  I2  1  0.59485  0.79742  0.25000  1
 I  I3  1  0.20258  0.79742  0.25000  1
 I  I4  1  0.79742  0.59485  0.75000  1
 I  I5  1  0.40515  0.20258  0.75000  1
 I  I6  1  0.79742  0.20258  0.75000  1
 Pr  Pr1  1  0.33333  0.66667  0.75000  1
 Pr  Pr2  1  0.66667  0.33333  0.25000  1
