CIF file written using JARVIS-Tools package.
data_Li2AlNiO4
_symmetry_space_group_name_H-M  'Pc'
_cell_length_a       4.96812
_cell_length_b       5.37052
_cell_length_c       8.03541
_cell_angle_alpha    90
_cell_angle_beta     128.21
_cell_angle_gamma    90

_symmetry_Int_Tables_number  7
_chemical_formula_structural  Li2AlNiO4
_chemical_formula_sum  Li4Al2Ni2O8
_cell_volume  168.46210263991813
_cell_formula_units_Z  2
loop_
  _symmetry_equiv_pos_site_id
 _symmetry_equiv_pos_as_xyz
 1  'x, y, z'
loop_
 _atom_site_type_symbol
 _atom_site_label
 _atom_site_symmetry_multiplicity
 _atom_site_fract_x
 _atom_site_fract_y
 _atom_site_fract_z
 _atom_site_fract_occupancy
 Al  Al1  1  0.75068  0.66930  0.75401  1
 Al  Al2  1  0.75068  0.33070  0.25401  1
 Li  Li1  1  0.25491  0.33116  0.75266  1
 Li  Li2  1  0.50581  0.83469  0.00392  1
 Li  Li3  1  0.25491  0.66884  0.25266  1
 Li  Li4  1  0.50581  0.16531  0.50392  1
 Ni  Ni1  1  0.99799  0.16673  0.99928  1
 Ni  Ni2  1  0.99799  0.83327  0.49928  1
 O  O1  1  0.38031  0.68014  0.74359  1
 O  O2  1  0.64150  0.18389  0.02072  1
 O  O3  1  0.08994  0.16714  0.48587  1
 O  O4  1  0.86745  0.64714  0.26285  1
 O  O5  1  0.38031  0.31986  0.24359  1
 O  O6  1  0.64150  0.81611  0.52072  1
 O  O7  1  0.08994  0.83286  0.98587  1
 O  O8  1  0.86745  0.35286  0.76285  1
