CIF file written using JARVIS-Tools package.
data_NaScS2
_symmetry_space_group_name_H-M  'R-3m'
_cell_length_a       3.7567
_cell_length_b       3.7567
_cell_length_c       6.90974
_cell_angle_alpha    74.2262
_cell_angle_beta     74.2261
_cell_angle_gamma    60

_symmetry_Int_Tables_number  166
_chemical_formula_structural  NaScS2
_chemical_formula_sum  NaScS2
_cell_volume  80.18285162331506
_cell_formula_units_Z  1
loop_
  _symmetry_equiv_pos_site_id
 _symmetry_equiv_pos_as_xyz
 1  'x, y, z'
loop_
 _atom_site_type_symbol
 _atom_site_label
 _atom_site_symmetry_multiplicity
 _atom_site_fract_x
 _atom_site_fract_y
 _atom_site_fract_z
 _atom_site_fract_occupancy
 Na  Na1  1  0.50000  0.50000  0.50000  1
 S  S1  1  0.73940  0.73940  0.78180  1
 S  S2  1  0.26060  0.26060  0.21820  1
 Sc  Sc1  1  0.00000  0.00000  0.00000  1
