CIF file written using JARVIS-Tools package.
data_Sm5Sb3
_symmetry_space_group_name_H-M  'P6_3/mcm'
_cell_length_a       9.19126
_cell_length_b       9.19126
_cell_length_c       6.38567
_cell_angle_alpha    90
_cell_angle_beta     90
_cell_angle_gamma    119.999

_symmetry_Int_Tables_number  193
_chemical_formula_structural  Sm5Sb3
_chemical_formula_sum  Sm0Sb6
_cell_volume  467.1863606892062
_cell_formula_units_Z  2
loop_
  _symmetry_equiv_pos_site_id
 _symmetry_equiv_pos_as_xyz
 1  'x, y, z'
loop_
 _atom_site_type_symbol
 _atom_site_label
 _atom_site_symmetry_multiplicity
 _atom_site_fract_x
 _atom_site_fract_y
 _atom_site_fract_z
 _atom_site_fract_occupancy
 Sb  Sb1  1  0.61369  0.00000  0.25000  1
 Sb  Sb2  1  0.38631  -0.00000  0.75000  1
 Sb  Sb3  1  0.00000  0.61369  0.25000  1
 Sb  Sb4  1  0.38631  0.38631  0.25000  1
 Sb  Sb5  1  0.61369  0.61369  0.75000  1
 Sb  Sb6  1  -0.00000  0.38631  0.75000  1
 Sm  Sm1  1  0.24851  0.99999  0.25000  1
 Sm  Sm2  1  0.75149  0.00001  0.75000  1
 Sm  Sm3  1  0.99999  0.24851  0.25000  1
 Sm  Sm4  1  0.75148  0.75148  0.25000  1
 Sm  Sm5  1  0.24852  0.24852  0.75000  1
 Sm  Sm6  1  0.00001  0.75149  0.75000  1
 Sm  Sm7  1  0.33333  0.66667  -0.00000  1
 Sm  Sm8  1  0.66667  0.33333  0.50000  1
 Sm  Sm9  1  0.66667  0.33333  0.00000  1
 Sm  Sm10  1  0.33333  0.66667  0.50000  1
