CIF file written using JARVIS-Tools package.
data_Li2NiC2O6
_symmetry_space_group_name_H-M  'P2_1/c'
_cell_length_a       5.09938
_cell_length_b       6.01273
_cell_length_c       7.84897
_cell_angle_alpha    89.9993
_cell_angle_beta     89.9995
_cell_angle_gamma    114.667

_symmetry_Int_Tables_number  14
_chemical_formula_structural  Li2NiC2O6
_chemical_formula_sum  Li4Ni2C4O2
_cell_volume  218.69874938228557
_cell_formula_units_Z  2
loop_
  _symmetry_equiv_pos_site_id
 _symmetry_equiv_pos_as_xyz
 1  'x, y, z'
loop_
 _atom_site_type_symbol
 _atom_site_label
 _atom_site_symmetry_multiplicity
 _atom_site_fract_x
 _atom_site_fract_y
 _atom_site_fract_z
 _atom_site_fract_occupancy
 C  C1  1  0.27757  0.12674  0.73513  1
 C  C2  1  0.22886  0.38187  0.23513  1
 C  C3  1  0.77756  0.62673  0.76463  1
 C  C4  1  0.72883  0.88187  0.26462  1
 Li  Li1  1  0.69141  0.31548  0.05754  1
 Li  Li2  1  0.81503  0.19315  0.55755  1
 Li  Li3  1  0.19136  0.81546  0.44220  1
 Li  Li4  1  0.31500  0.69310  0.94224  1
 Ni  Ni1  1  0.50321  0.50432  0.49988  1
 Ni  Ni2  1  0.00321  0.00431  -0.00012  1
 O  O1  1  0.61024  0.91031  0.12451  1
 O  O2  1  0.39615  0.09829  0.87524  1
 O  O3  1  0.40766  0.15512  0.58963  1
 O  O4  1  0.09879  0.35351  0.08962  1
 O  O5  1  0.01963  0.11591  0.74646  1
 O  O6  1  0.90764  0.65511  0.91013  1
 O  O7  1  0.51963  0.61591  0.75331  1
 O  O8  1  0.89615  0.59828  0.62452  1
 O  O9  1  0.59873  0.85348  0.41013  1
 O  O10  1  0.11025  0.41030  0.37524  1
 O  O11  1  0.48680  0.39271  0.24645  1
 O  O12  1  0.98677  0.89271  0.25330  1
