CIF file written using JARVIS-Tools package.
data_Sr2HfO4
_symmetry_space_group_name_H-M  'I4/mmm'
_cell_length_a       4.09531
_cell_length_b       7.02593
_cell_length_c       4.09531
_cell_angle_alpha    73.0556
_cell_angle_beta     90
_cell_angle_gamma    106.944

_symmetry_Int_Tables_number  139
_chemical_formula_structural  Sr2HfO4
_chemical_formula_sum  Sr2HfO4
_cell_volume  107.36155238648868
_cell_formula_units_Z  1
loop_
  _symmetry_equiv_pos_site_id
 _symmetry_equiv_pos_as_xyz
 1  'x, y, z'
loop_
 _atom_site_type_symbol
 _atom_site_label
 _atom_site_symmetry_multiplicity
 _atom_site_fract_x
 _atom_site_fract_y
 _atom_site_fract_z
 _atom_site_fract_occupancy
 Hf  Hf1  1  0.00000  0.00000  0.00000  1
 O  O1  1  0.50000  0.00000  0.00000  1
 O  O2  1  0.00000  0.00000  0.50000  1
 O  O3  1  0.83587  0.67174  0.16413  1
 O  O4  1  0.16413  0.32826  0.83587  1
 Sr  Sr1  1  0.64740  0.29481  0.35260  1
 Sr  Sr2  1  0.35260  0.70519  0.64740  1
