CIF file written using JARVIS-Tools package.
data_K3ReClF6
_symmetry_space_group_name_H-M  'P4/mbm'
_cell_length_a       8.1737
_cell_length_b       8.1737
_cell_length_c       6.01074
_cell_angle_alpha    90
_cell_angle_beta     90
_cell_angle_gamma    90

_symmetry_Int_Tables_number  127
_chemical_formula_structural  K3ReClF6
_chemical_formula_sum  K6Re2Cl2F2
_cell_volume  401.57370952132237
_cell_formula_units_Z  2
loop_
  _symmetry_equiv_pos_site_id
 _symmetry_equiv_pos_as_xyz
 1  'x, y, z'
loop_
 _atom_site_type_symbol
 _atom_site_label
 _atom_site_symmetry_multiplicity
 _atom_site_fract_x
 _atom_site_fract_y
 _atom_site_fract_z
 _atom_site_fract_occupancy
 Cl  Cl1  1  0.50000  0.50000  0.50000  1
 Cl  Cl2  1  0.00000  0.00000  0.50000  1
 F  F1  1  0.38446  0.11554  0.24533  1
 F  F2  1  0.11554  0.61554  0.75467  1
 F  F3  1  0.61554  0.88446  0.75467  1
 F  F4  1  0.17184  0.32816  0.00000  1
 F  F5  1  0.88446  0.38446  0.75467  1
 F  F6  1  0.88446  0.38446  0.24533  1
 F  F7  1  0.82816  0.67184  0.00000  1
 F  F8  1  0.11554  0.61554  0.24533  1
 F  F9  1  0.67184  0.17184  0.00000  1
 F  F10  1  0.32816  0.82816  0.00000  1
 F  F11  1  0.38446  0.11554  0.75467  1
 F  F12  1  0.61554  0.88446  0.24533  1
 K  K1  1  0.00000  0.00000  0.00000  1
 K  K2  1  0.32125  0.82125  0.50000  1
 K  K3  1  0.17875  0.32125  0.50000  1
 K  K4  1  0.50000  0.50000  0.00000  1
 K  K5  1  0.82125  0.67875  0.50000  1
 K  K6  1  0.67875  0.17875  0.50000  1
 Re  Re1  1  0.00000  0.50000  0.00000  1
 Re  Re2  1  0.50000  0.00000  0.00000  1
