CIF file written using JARVIS-Tools package.
data_Co3NiO8
_symmetry_space_group_name_H-M  'R-3m'
_cell_length_a       5.60308
_cell_length_b       5.60308
_cell_length_c       5.62386
_cell_angle_alpha    60.1222
_cell_angle_beta     119.878
_cell_angle_gamma    120

_symmetry_Int_Tables_number  166
_chemical_formula_structural  Co3NiO8
_chemical_formula_sum  Co3NiO8
_cell_volume  125.07581044609682
_cell_formula_units_Z  1
loop_
  _symmetry_equiv_pos_site_id
 _symmetry_equiv_pos_as_xyz
 1  'x, y, z'
loop_
 _atom_site_type_symbol
 _atom_site_label
 _atom_site_symmetry_multiplicity
 _atom_site_fract_x
 _atom_site_fract_y
 _atom_site_fract_z
 _atom_site_fract_occupancy
 Co  Co1  1  0.50000  0.50000  0.00000  1
 Co  Co2  1  0.50000  0.00000  -0.00000  1
 Co  Co3  1  -0.00000  0.50000  0.00000  1
 Ni  Ni1  1  0.50000  0.50000  0.50000  1
 O  O1  1  0.73713  0.70845  0.76580  1
 O  O2  1  0.73713  0.26287  0.76580  1
 O  O3  1  0.26470  0.73530  0.79411  1
 O  O4  1  0.29155  0.26287  0.76580  1
 O  O5  1  0.70845  0.73713  0.23420  1
 O  O6  1  0.73530  0.26470  0.20589  1
 O  O7  1  0.26287  0.73713  0.23420  1
 O  O8  1  0.26287  0.29155  0.23420  1
