CIF file written using JARVIS-Tools package.
data_YbAl3B4O12
_symmetry_space_group_name_H-M  'R32'
_cell_length_a       5.91068
_cell_length_b       5.91068
_cell_length_c       5.91068
_cell_angle_alpha    104.189
_cell_angle_beta     104.189
_cell_angle_gamma    104.189

_symmetry_Int_Tables_number  155
_chemical_formula_structural  YbAl3B4O12
_chemical_formula_sum  YbAl3B4O2
_cell_volume  183.57185541033917
_cell_formula_units_Z  1
loop_
  _symmetry_equiv_pos_site_id
 _symmetry_equiv_pos_as_xyz
 1  'x, y, z'
loop_
 _atom_site_type_symbol
 _atom_site_label
 _atom_site_symmetry_multiplicity
 _atom_site_fract_x
 _atom_site_fract_y
 _atom_site_fract_z
 _atom_site_fract_occupancy
 Al  Al1  1  -0.00000  0.44301  0.55699  1
 Al  Al2  1  0.55699  0.00000  0.44301  1
 Al  Al3  1  0.44301  0.55699  0.00000  1
 B  B1  1  0.94153  0.50000  0.05847  1
 B  B2  1  0.50000  0.50000  0.50000  1
 B  B3  1  0.05847  0.94153  0.50000  1
 B  B4  1  0.50000  0.05847  0.94153  1
 O  O1  1  0.09049  0.50000  0.90951  1
 O  O2  1  0.35190  0.50000  0.64810  1
 O  O3  1  0.50000  0.64810  0.35190  1
 O  O4  1  0.97048  0.37588  0.22506  1
 O  O5  1  0.37588  0.22506  0.97048  1
 O  O6  1  0.22506  0.97048  0.37588  1
 O  O7  1  0.62412  0.02952  0.77494  1
 O  O8  1  0.02952  0.77494  0.62412  1
 O  O9  1  0.90951  0.09049  0.50000  1
 O  O10  1  0.64810  0.35190  0.50000  1
 O  O11  1  0.50000  0.90951  0.09049  1
 O  O12  1  0.77494  0.62412  0.02952  1
 Yb  Yb1  1  0.00000  0.00000  0.00000  1
