CIF file written using JARVIS-Tools package.
data_Ho3CuSiS7
_symmetry_space_group_name_H-M  'P6_3'
_cell_length_a       9.82806
_cell_length_b       9.82806
_cell_length_c       5.6805
_cell_angle_alpha    90
_cell_angle_beta     90
_cell_angle_gamma    120

_symmetry_Int_Tables_number  173
_chemical_formula_structural  Ho3CuSiS7
_chemical_formula_sum  Ho6Cu2Si2S4
_cell_volume  475.1742339174817
_cell_formula_units_Z  2
loop_
  _symmetry_equiv_pos_site_id
 _symmetry_equiv_pos_as_xyz
 1  'x, y, z'
loop_
 _atom_site_type_symbol
 _atom_site_label
 _atom_site_symmetry_multiplicity
 _atom_site_fract_x
 _atom_site_fract_y
 _atom_site_fract_z
 _atom_site_fract_occupancy
 Cu  Cu1  1  0.00000  0.00000  0.19576  1
 Cu  Cu2  1  0.00000  0.00000  0.69576  1
 Ho  Ho1  1  0.35778  0.22763  0.24204  1
 Ho  Ho2  1  0.13015  0.35778  0.74204  1
 Ho  Ho3  1  0.22763  0.86985  0.74204  1
 Ho  Ho4  1  0.77237  0.13015  0.24204  1
 Ho  Ho5  1  0.86985  0.64222  0.24204  1
 Ho  Ho6  1  0.64222  0.77237  0.74204  1
 S  S1  1  0.41828  0.52261  0.48041  1
 S  S2  1  0.73951  0.83611  0.21378  1
 S  S3  1  0.52261  0.10433  0.98041  1
 S  S4  1  0.10433  0.58172  0.48041  1
 S  S5  1  0.09660  0.26049  0.21378  1
 S  S6  1  0.58172  0.47739  0.98041  1
 S  S7  1  0.89567  0.41828  0.98041  1
 S  S8  1  0.90340  0.73951  0.71378  1
 S  S9  1  0.33333  0.66667  0.95711  1
 S  S10  1  0.66667  0.33333  0.45711  1
 S  S11  1  0.83611  0.09660  0.71378  1
 S  S12  1  0.16389  0.90340  0.21378  1
 S  S13  1  0.47739  0.89567  0.48041  1
 S  S14  1  0.26049  0.16389  0.71378  1
 Si  Si1  1  0.66667  0.33333  0.82911  1
 Si  Si2  1  0.33333  0.66667  0.32911  1
