CIF file written using JARVIS-Tools package.
data_K3SbSe3
_symmetry_space_group_name_H-M  'P2_13'
_cell_length_a       9.74297
_cell_length_b       9.74297
_cell_length_c       9.74297
_cell_angle_alpha    90
_cell_angle_beta     90
_cell_angle_gamma    90

_symmetry_Int_Tables_number  198
_chemical_formula_structural  K3SbSe3
_chemical_formula_sum  K2Sb4Se2
_cell_volume  924.8566187895717
_cell_formula_units_Z  4
loop_
  _symmetry_equiv_pos_site_id
 _symmetry_equiv_pos_as_xyz
 1  'x, y, z'
loop_
 _atom_site_type_symbol
 _atom_site_label
 _atom_site_symmetry_multiplicity
 _atom_site_fract_x
 _atom_site_fract_y
 _atom_site_fract_z
 _atom_site_fract_occupancy
 K  K1  1  0.82173  0.17827  0.67827  1
 K  K2  1  0.18649  0.31351  0.68649  1
 K  K3  1  0.31351  0.68649  0.18649  1
 K  K4  1  0.68649  0.18649  0.31351  1
 K  K5  1  0.81351  0.81351  0.81351  1
 K  K6  1  0.42533  0.07467  0.92533  1
 K  K7  1  0.07467  0.92533  0.42533  1
 K  K8  1  0.92533  0.42533  0.07467  1
 K  K9  1  0.57467  0.57467  0.57467  1
 K  K10  1  0.67827  0.82173  0.17827  1
 K  K11  1  0.17827  0.67827  0.82173  1
 K  K12  1  0.32173  0.32173  0.32173  1
 Sb  Sb1  1  0.03209  0.03209  0.03209  1
 Sb  Sb2  1  0.46791  0.96791  0.53209  1
 Sb  Sb3  1  0.53209  0.46791  0.96791  1
 Sb  Sb4  1  0.96791  0.53209  0.46791  1
 Se  Se1  1  0.22335  0.60822  0.49896  1
 Se  Se2  1  0.77665  0.10822  0.00104  1
 Se  Se3  1  0.99896  0.27665  0.39178  1
 Se  Se4  1  0.72335  0.89178  0.50104  1
 Se  Se5  1  0.10822  0.00104  0.77665  1
 Se  Se6  1  0.50104  0.72335  0.89178  1
 Se  Se7  1  0.00104  0.77665  0.10822  1
 Se  Se8  1  0.39178  0.99896  0.27665  1
 Se  Se9  1  0.49896  0.22335  0.60822  1
 Se  Se10  1  0.89178  0.50104  0.72335  1
 Se  Se11  1  0.60822  0.49896  0.22335  1
 Se  Se12  1  0.27665  0.39178  0.99896  1
