CIF file written using JARVIS-Tools package.
data_Li2MnOF2
_symmetry_space_group_name_H-M  'Cmcm'
_cell_length_a       5.89462
_cell_length_b       6.12578
_cell_length_c       4.09613
_cell_angle_alpha    90
_cell_angle_beta     90
_cell_angle_gamma    61.2406

_symmetry_Int_Tables_number  63
_chemical_formula_structural  Li2MnOF2
_chemical_formula_sum  Li4Mn2O2F4
_cell_volume  129.66295021397323
_cell_formula_units_Z  2
loop_
  _symmetry_equiv_pos_site_id
 _symmetry_equiv_pos_as_xyz
 1  'x, y, z'
loop_
 _atom_site_type_symbol
 _atom_site_label
 _atom_site_symmetry_multiplicity
 _atom_site_fract_x
 _atom_site_fract_y
 _atom_site_fract_z
 _atom_site_fract_occupancy
 F  F1  1  0.83732  0.63618  0.94533  1
 F  F2  1  0.52651  0.63618  0.44533  1
 F  F3  1  0.47349  0.36382  0.94533  1
 F  F4  1  0.16268  0.36382  0.44533  1
 Li  Li1  1  0.49962  0.66293  0.94527  1
 Li  Li2  1  0.83746  0.66293  0.44527  1
 Li  Li3  1  0.50038  0.33707  0.44527  1
 Li  Li4  1  0.16254  0.33707  0.94527  1
 Mn  Mn1  1  0.82329  -0.00000  0.94530  1
 Mn  Mn2  1  0.17671  0.00000  0.44530  1
 O  O1  1  0.81322  0.00000  0.44531  1
 O  O2  1  0.18678  -0.00000  0.94531  1
