CIF file written using JARVIS-Tools package.
data_NaHg2Bi
_symmetry_space_group_name_H-M  'P-1'
_cell_length_a       13.259
_cell_length_b       5.54416
_cell_length_c       7.56765
_cell_angle_alpha    52.2318
_cell_angle_beta     27.485
_cell_angle_gamma    31.5443

_symmetry_Int_Tables_number  2
_chemical_formula_structural  NaHg2Bi
_chemical_formula_sum  NaHg2Bi
_cell_volume  107.98712467604915
_cell_formula_units_Z  1
loop_
  _symmetry_equiv_pos_site_id
 _symmetry_equiv_pos_as_xyz
 1  'x, y, z'
loop_
 _atom_site_type_symbol
 _atom_site_label
 _atom_site_symmetry_multiplicity
 _atom_site_fract_x
 _atom_site_fract_y
 _atom_site_fract_z
 _atom_site_fract_occupancy
 Bi  Bi1  1  0.50000  -0.00000  0.00000  1
 Hg  Hg1  1  0.74670  0.00017  0.02296  1
 Hg  Hg2  1  0.25330  -0.00017  0.97704  1
 Na  Na1  1  0.00000  0.00000  0.00000  1
