CIF file written using JARVIS-Tools package.
data_Li8NiO4F2
_symmetry_space_group_name_H-M  'P-1'
_cell_length_a       5.18709
_cell_length_b       5.29802
_cell_length_c       5.67447
_cell_angle_alpha    90.1971
_cell_angle_beta     115.052
_cell_angle_gamma    109.755

_symmetry_Int_Tables_number  2
_chemical_formula_structural  Li8NiO4F2
_chemical_formula_sum  Li8NiO4F2
_cell_volume  130.97834877592322
_cell_formula_units_Z  1
loop_
  _symmetry_equiv_pos_site_id
 _symmetry_equiv_pos_as_xyz
 1  'x, y, z'
loop_
 _atom_site_type_symbol
 _atom_site_label
 _atom_site_symmetry_multiplicity
 _atom_site_fract_x
 _atom_site_fract_y
 _atom_site_fract_z
 _atom_site_fract_occupancy
 F  F1  1  0.42135  0.50944  0.71053  1
 F  F2  1  0.57865  0.49056  0.28947  1
 Li  Li1  1  0.18715  0.44463  0.29104  1
 Li  Li2  1  0.07178  0.20061  0.62528  1
 Li  Li3  1  0.42929  0.86220  0.63452  1
 Li  Li4  1  0.58808  0.24322  -0.04734  1
 Li  Li5  1  0.41192  0.75678  0.04734  1
 Li  Li6  1  0.57071  0.13780  0.36548  1
 Li  Li7  1  0.92822  0.79939  0.37472  1
 Li  Li8  1  0.81285  0.55537  0.70896  1
 Ni  Ni1  1  0.00000  0.00000  0.00000  1
 O  O1  1  0.84547  0.09731  0.22976  1
 O  O2  1  0.20897  0.80633  0.25100  1
 O  O3  1  0.79103  0.19367  0.74900  1
 O  O4  1  0.15453  0.90269  0.77024  1
