CIF file written using JARVIS-Tools package.
data_Li2AlVO4
_symmetry_space_group_name_H-M  'Pmn2_1'
_cell_length_a       4.85563
_cell_length_b       5.52162
_cell_length_c       6.3364
_cell_angle_alpha    90
_cell_angle_beta     90
_cell_angle_gamma    90

_symmetry_Int_Tables_number  31
_chemical_formula_structural  Li2AlVO4
_chemical_formula_sum  Li4Al2V2O8
_cell_volume  169.88497905438726
_cell_formula_units_Z  2
loop_
  _symmetry_equiv_pos_site_id
 _symmetry_equiv_pos_as_xyz
 1  'x, y, z'
loop_
 _atom_site_type_symbol
 _atom_site_label
 _atom_site_symmetry_multiplicity
 _atom_site_fract_x
 _atom_site_fract_y
 _atom_site_fract_z
 _atom_site_fract_occupancy
 Al  Al1  1  0.50333  0.82795  0.00000  1
 Al  Al2  1  0.00333  0.17205  0.50000  1
 Li  Li1  1  0.01121  0.66632  0.25140  1
 Li  Li2  1  0.51121  0.33368  0.24860  1
 Li  Li3  1  0.01121  0.66632  0.74860  1
 Li  Li4  1  0.51121  0.33368  0.75140  1
 O  O1  1  0.13388  0.84244  0.00000  1
 O  O2  1  0.61518  0.13712  0.00000  1
 O  O3  1  0.10533  0.32291  0.26362  1
 O  O4  1  0.60533  0.67709  0.23638  1
 O  O5  1  0.11518  0.86288  0.50000  1
 O  O6  1  0.63388  0.15756  0.50000  1
 O  O7  1  0.60533  0.67709  0.76362  1
 O  O8  1  0.10533  0.32291  0.73638  1
 V  V1  1  0.01453  0.17111  0.00000  1
 V  V2  1  0.51453  0.82889  0.50000  1
