CIF file written using JARVIS-Tools package.
data_RbSrCl3
_symmetry_space_group_name_H-M  'R-3'
_cell_length_a       7.6731
_cell_length_b       7.67311
_cell_length_c       8.26019
_cell_angle_alpha    62.3245
_cell_angle_beta     62.3245
_cell_angle_gamma    60

_symmetry_Int_Tables_number  148
_chemical_formula_structural  RbSrCl3
_chemical_formula_sum  Rb2Sr2Cl6
_cell_volume  355.4795576000609
_cell_formula_units_Z  2
loop_
  _symmetry_equiv_pos_site_id
 _symmetry_equiv_pos_as_xyz
 1  'x, y, z'
loop_
 _atom_site_type_symbol
 _atom_site_label
 _atom_site_symmetry_multiplicity
 _atom_site_fract_x
 _atom_site_fract_y
 _atom_site_fract_z
 _atom_site_fract_occupancy
 Cl  Cl1  1  0.47337  0.70314  0.76546  1
 Cl  Cl2  1  0.05803  0.47337  0.76546  1
 Cl  Cl3  1  0.70314  0.05803  0.76546  1
 Cl  Cl4  1  0.52663  0.29686  0.23454  1
 Cl  Cl5  1  0.29686  0.94197  0.23454  1
 Cl  Cl6  1  0.94197  0.52663  0.23454  1
 Rb  Rb1  1  0.86206  0.86206  0.41383  1
 Rb  Rb2  1  0.13794  0.13794  0.58617  1
 Sr  Sr1  1  0.65614  0.65614  0.03159  1
 Sr  Sr2  1  0.34386  0.34386  0.96841  1
