CIF file written using JARVIS-Tools package.
data_Li3Mn3O5F3
_symmetry_space_group_name_H-M  'P1'
_cell_length_a       5.71961
_cell_length_b       5.81036
_cell_length_c       5.88837
_cell_angle_alpha    92.8113
_cell_angle_beta     119.025
_cell_angle_gamma    116.763

_symmetry_Int_Tables_number  1
_chemical_formula_structural  Li3Mn3O5F3
_chemical_formula_sum  Li3Mn3O5F3
_cell_volume  143.53262045688203
_cell_formula_units_Z  1
loop_
  _symmetry_equiv_pos_site_id
 _symmetry_equiv_pos_as_xyz
 1  'x, y, z'
loop_
 _atom_site_type_symbol
 _atom_site_label
 _atom_site_symmetry_multiplicity
 _atom_site_fract_x
 _atom_site_fract_y
 _atom_site_fract_z
 _atom_site_fract_occupancy
 F  F1  1  0.26461  0.38051  0.64727  1
 F  F2  1  0.23945  0.87014  0.10007  1
 F  F3  1  0.74589  0.87146  0.14234  1
 Li  Li1  1  0.00756  0.02792  0.99105  1
 Li  Li2  1  0.24207  0.61938  0.87174  1
 Li  Li3  1  0.49920  0.22670  0.75419  1
 Mn  Mn1  1  0.75089  0.13075  0.38303  1
 Mn  Mn2  1  0.74924  0.61230  0.38924  1
 Mn  Mn3  1  0.24830  0.62585  0.37398  1
 O  O1  1  0.75502  0.38374  0.59590  1
 O  O2  1  0.30163  0.42541  0.16125  1
 O  O3  1  0.71555  0.87172  0.57671  1
 O  O4  1  0.78333  0.37660  0.17631  1
 O  O5  1  0.19724  0.82752  0.58692  1
