CIF file written using JARVIS-Tools package.
data_PrRh
_symmetry_space_group_name_H-M  'Cmcm'
_cell_length_a       3.99169
_cell_length_b       4.23956
_cell_length_c       5.89068
_cell_angle_alpha    90
_cell_angle_beta     70.1953
_cell_angle_gamma    90

_symmetry_Int_Tables_number  63
_chemical_formula_structural  PrRh
_chemical_formula_sum  Pr2Rh2
_cell_volume  93.79177835167253
_cell_formula_units_Z  2
loop_
  _symmetry_equiv_pos_site_id
 _symmetry_equiv_pos_as_xyz
 1  'x, y, z'
loop_
 _atom_site_type_symbol
 _atom_site_label
 _atom_site_symmetry_multiplicity
 _atom_site_fract_x
 _atom_site_fract_y
 _atom_site_fract_z
 _atom_site_fract_occupancy
 Pr  Pr1  1  0.14123  0.75000  0.71754  1
 Pr  Pr2  1  0.85877  0.25000  0.28246  1
 Rh  Rh1  1  0.41461  0.75000  0.17078  1
 Rh  Rh2  1  0.58539  0.25000  0.82922  1
