CIF file written using JARVIS-Tools package.
data_KInGe2O6
_symmetry_space_group_name_H-M  'C2/c'
_cell_length_a       5.69512
_cell_length_b       7.08674
_cell_length_c       7.08674
_cell_angle_alpha    84.9928
_cell_angle_beta     78.9601
_cell_angle_gamma    78.9601

_symmetry_Int_Tables_number  15
_chemical_formula_structural  KInGe2O6
_chemical_formula_sum  K2In2Ge4O2
_cell_volume  275.1507354879444
_cell_formula_units_Z  2
loop_
  _symmetry_equiv_pos_site_id
 _symmetry_equiv_pos_as_xyz
 1  'x, y, z'
loop_
 _atom_site_type_symbol
 _atom_site_label
 _atom_site_symmetry_multiplicity
 _atom_site_fract_x
 _atom_site_fract_y
 _atom_site_fract_z
 _atom_site_fract_occupancy
 Ge  Ge1  1  0.78674  0.19563  0.37527  1
 Ge  Ge2  1  0.21326  0.80437  0.62473  1
 Ge  Ge3  1  0.71326  0.62473  0.80437  1
 Ge  Ge4  1  0.28674  0.37527  0.19563  1
 In  In1  1  0.25000  0.89678  0.10322  1
 In  In2  1  0.75000  0.10322  0.89678  1
 K  K1  1  0.25000  0.31150  0.68850  1
 K  K2  1  0.75000  0.68850  0.31150  1
 O  O1  1  0.52131  0.37133  0.33453  1
 O  O2  1  0.02131  0.33453  0.37133  1
 O  O3  1  0.47869  0.62867  0.66547  1
 O  O4  1  0.29238  0.90988  0.39503  1
 O  O5  1  0.20762  0.60497  0.09012  1
 O  O6  1  0.36891  0.18233  0.03692  1
 O  O7  1  0.79238  0.39503  0.90988  1
 O  O8  1  0.97869  0.66547  0.62867  1
 O  O9  1  0.63109  0.81767  0.96308  1
 O  O10  1  0.13109  0.96308  0.81767  1
 O  O11  1  0.70762  0.09012  0.60497  1
 O  O12  1  0.86891  0.03692  0.18233  1
