CIF file written using JARVIS-Tools package.
data_Rb2PbO3
_symmetry_space_group_name_H-M  'Cmc2_1'
_cell_length_a       6.11733
_cell_length_b       6.61942
_cell_length_c       6.61942
_cell_angle_alpha    112.171
_cell_angle_beta     90
_cell_angle_gamma    90

_symmetry_Int_Tables_number  36
_chemical_formula_structural  Rb2PbO3
_chemical_formula_sum  Rb4Pb2O6
_cell_volume  248.22412086652943
_cell_formula_units_Z  2
loop_
  _symmetry_equiv_pos_site_id
 _symmetry_equiv_pos_as_xyz
 1  'x, y, z'
loop_
 _atom_site_type_symbol
 _atom_site_label
 _atom_site_symmetry_multiplicity
 _atom_site_fract_x
 _atom_site_fract_y
 _atom_site_fract_z
 _atom_site_fract_occupancy
 O  O1  1  0.65964  0.63428  0.63428  1
 O  O2  1  0.15964  0.36572  0.36572  1
 O  O3  1  0.00223  0.84532  0.10750  1
 O  O4  1  0.50223  0.15468  0.89250  1
 O  O5  1  0.00223  0.10750  0.84532  1
 O  O6  1  0.50223  0.89250  0.15468  1
 Pb  Pb1  1  0.74132  0.90444  0.90444  1
 Pb  Pb2  1  0.24132  0.09556  0.09556  1
 Rb  Rb1  1  0.26730  0.48157  0.80704  1
 Rb  Rb2  1  0.76730  0.19296  0.51843  1
 Rb  Rb3  1  0.76730  0.51843  0.19296  1
 Rb  Rb4  1  0.26730  0.80704  0.48157  1
