CIF file written using JARVIS-Tools package.
data_InCoO3
_symmetry_space_group_name_H-M  'Pnma'
_cell_length_a       5.11696
_cell_length_b       7.41999
_cell_length_c       5.31254
_cell_angle_alpha    90
_cell_angle_beta     89.9996
_cell_angle_gamma    90

_symmetry_Int_Tables_number  62
_chemical_formula_structural  InCoO3
_chemical_formula_sum  In4Co4O2
_cell_volume  201.70544320267703
_cell_formula_units_Z  4
loop_
  _symmetry_equiv_pos_site_id
 _symmetry_equiv_pos_as_xyz
 1  'x, y, z'
loop_
 _atom_site_type_symbol
 _atom_site_label
 _atom_site_symmetry_multiplicity
 _atom_site_fract_x
 _atom_site_fract_y
 _atom_site_fract_z
 _atom_site_fract_occupancy
 Co  Co1  1  0.00000  0.00000  0.50000  1
 Co  Co2  1  0.00000  0.50000  0.50000  1
 Co  Co3  1  0.50000  0.00000  0.00000  1
 Co  Co4  1  0.50000  0.50000  0.00000  1
 In  In1  1  0.97861  0.75000  0.06205  1
 In  In2  1  0.52139  0.75000  0.56205  1
 In  In3  1  0.47861  0.25000  0.43795  1
 In  In4  1  0.02139  0.25000  0.93795  1
 O  O1  1  0.88121  0.25000  0.54983  1
 O  O2  1  0.19850  0.43618  0.20250  1
 O  O3  1  0.80150  0.93618  0.79750  1
 O  O4  1  0.69850  0.93619  0.29750  1
 O  O5  1  0.80150  0.56382  0.79750  1
 O  O6  1  0.30150  0.06381  0.70250  1
 O  O7  1  0.38121  0.75000  0.95017  1
 O  O8  1  0.30150  0.43619  0.70250  1
 O  O9  1  0.69850  0.56381  0.29750  1
 O  O10  1  0.19850  0.06382  0.20250  1
 O  O11  1  0.61879  0.25000  0.04983  1
 O  O12  1  0.11879  0.75000  0.45017  1
