CIF file written using JARVIS-Tools package.
data_K2MnS2
_symmetry_space_group_name_H-M  'Ibam'
_cell_length_a       6.23266
_cell_length_b       6.81998
_cell_length_c       7.81554
_cell_angle_alpha    115.869
_cell_angle_beta     113.499
_cell_angle_gamma    90

_symmetry_Int_Tables_number  72
_chemical_formula_structural  K2MnS2
_chemical_formula_sum  K4Mn2S4
_cell_volume  267.9706691658625
_cell_formula_units_Z  2
loop_
  _symmetry_equiv_pos_site_id
 _symmetry_equiv_pos_as_xyz
 1  'x, y, z'
loop_
 _atom_site_type_symbol
 _atom_site_label
 _atom_site_symmetry_multiplicity
 _atom_site_fract_x
 _atom_site_fract_y
 _atom_site_fract_z
 _atom_site_fract_occupancy
 K  K1  1  0.35251  0.19398  0.70502  1
 K  K2  1  0.14749  0.48896  0.29498  1
 K  K3  1  0.64749  0.80602  0.29498  1
 K  K4  1  0.85251  0.51104  0.70502  1
 Mn  Mn1  1  0.25000  0.00000  -0.00000  1
 Mn  Mn2  1  0.75000  0.00000  -0.00000  1
 S  S1  1  0.39639  0.70083  0.79278  1
 S  S2  1  0.10361  0.90805  0.20722  1
 S  S3  1  0.60361  0.29917  0.20722  1
 S  S4  1  0.89639  0.09195  0.79278  1
