CIF file written using JARVIS-Tools package.
data_VF4
_symmetry_space_group_name_H-M  'P2_1/c'
_cell_length_a       5.42953
_cell_length_b       4.9319
_cell_length_c       9.70638
_cell_angle_alpha    90
_cell_angle_beta     92.228
_cell_angle_gamma    90

_symmetry_Int_Tables_number  14
_chemical_formula_structural  VF4
_chemical_formula_sum  V4F6
_cell_volume  259.72003519050236
_cell_formula_units_Z  4
loop_
  _symmetry_equiv_pos_site_id
 _symmetry_equiv_pos_as_xyz
 1  'x, y, z'
loop_
 _atom_site_type_symbol
 _atom_site_label
 _atom_site_symmetry_multiplicity
 _atom_site_fract_x
 _atom_site_fract_y
 _atom_site_fract_z
 _atom_site_fract_occupancy
 F  F1  1  0.55161  0.25703  0.70945  1
 F  F2  1  0.08947  0.12377  0.69091  1
 F  F3  1  0.08947  0.37623  0.19091  1
 F  F4  1  0.20729  0.66438  0.55783  1
 F  F5  1  0.20729  0.83562  0.05783  1
 F  F6  1  0.33860  0.36101  0.95419  1
 F  F7  1  0.91053  0.62377  0.80909  1
 F  F8  1  0.33860  0.13899  0.45419  1
 F  F9  1  0.44839  0.74297  0.29055  1
 F  F10  1  0.91053  0.87623  0.30909  1
 F  F11  1  0.55161  0.24297  0.20945  1
 F  F12  1  0.66140  0.86101  0.54581  1
 F  F13  1  0.66140  0.63899  0.04581  1
 F  F14  1  0.79271  0.16438  0.94217  1
 F  F15  1  0.79271  0.33562  0.44217  1
 F  F16  1  0.44839  0.75703  0.79055  1
 V  V1  1  0.65511  0.04587  0.36900  1
 V  V2  1  0.65511  0.45413  0.86900  1
 V  V3  1  0.34489  0.54587  0.13100  1
 V  V4  1  0.34489  0.95413  0.63100  1
