data_image0
_chemical_formula_structural       Li7Pb2
_chemical_formula_sum              "Li7 Pb2"
_cell_length_a       4.6424
_cell_length_b       4.64242
_cell_length_c       8.39838
_cell_angle_alpha    89.9998
_cell_angle_beta     89.9997
_cell_angle_gamma    120.001

_space_group_name_H-M_alt    "P 1"
_space_group_IT_number       1

loop_
  _space_group_symop_operation_xyz
  'x, y, z'

loop_
  _atom_site_type_symbol
  _atom_site_label
  _atom_site_symmetry_multiplicity
  _atom_site_fract_x
  _atom_site_fract_y
  _atom_site_fract_z
  _atom_site_occupancy
  Li  Li1       1.0  0.00000  0.00000  0.00000  1.0000
  Li  Li2       1.0  0.66700  0.33300  0.10300  1.0000
  Li  Li3       1.0  0.00000  0.00000  0.32600  1.0000
  Li  Li4       1.0  0.66700  0.33300  0.42400  1.0000
  Li  Li5       1.0  0.33300  0.66700  0.57600  1.0000
  Li  Li6       1.0  0.00001  0.00000  0.67400  1.0000
  Li  Li7       1.0  0.33300  0.66700  0.89700  1.0000
  Pb  Pb1       1.0  0.33300  0.66700  0.23700  1.0000
  Pb  Pb2       1.0  0.66700  0.33300  0.76300  1.0000
