CIF file written using JARVIS-Tools package.
data_NaMnCrF6
_symmetry_space_group_name_H-M  'P321'
_cell_length_a       9.05879
_cell_length_b       9.05879
_cell_length_c       4.95516
_cell_angle_alpha    90
_cell_angle_beta     90
_cell_angle_gamma    120

_symmetry_Int_Tables_number  150
_chemical_formula_structural  NaMnCrF6
_chemical_formula_sum  Na3Mn3Cr3F8
_cell_volume  352.1502273316107
_cell_formula_units_Z  3
loop_
  _symmetry_equiv_pos_site_id
 _symmetry_equiv_pos_as_xyz
 1  'x, y, z'
loop_
 _atom_site_type_symbol
 _atom_site_label
 _atom_site_symmetry_multiplicity
 _atom_site_fract_x
 _atom_site_fract_y
 _atom_site_fract_z
 _atom_site_fract_occupancy
 Cr  Cr1  1  0.33333  0.66667  0.49747  1
 Cr  Cr2  1  0.00000  0.00000  0.00000  1
 Cr  Cr3  1  0.66667  0.33333  0.50253  1
 F  F1  1  0.90079  0.10267  0.77532  1
 F  F2  1  0.54101  0.76699  0.70981  1
 F  F3  1  0.22598  0.45899  0.70981  1
 F  F4  1  0.23301  0.77402  0.70981  1
 F  F5  1  0.77402  0.23301  0.29019  1
 F  F6  1  0.46117  0.86985  0.28376  1
 F  F7  1  0.45899  0.22598  0.29019  1
 F  F8  1  0.86985  0.46117  0.71624  1
 F  F9  1  0.76699  0.54101  0.29019  1
 F  F10  1  0.53883  0.40869  0.71624  1
 F  F11  1  0.09921  0.20188  0.22468  1
 F  F12  1  0.40869  0.53883  0.28376  1
 F  F13  1  0.59131  0.13015  0.71624  1
 F  F14  1  0.89733  0.79812  0.77532  1
 F  F15  1  0.20188  0.09921  0.77532  1
 F  F16  1  0.13015  0.59131  0.28376  1
 F  F17  1  0.79812  0.89733  0.22468  1
 F  F18  1  0.10267  0.90079  0.22468  1
 Mn  Mn1  1  0.30002  0.30002  0.50000  1
 Mn  Mn2  1  -0.00000  0.69998  0.50000  1
 Mn  Mn3  1  0.69998  -0.00000  0.50000  1
 Na  Na1  1  -0.00000  0.36803  0.00000  1
 Na  Na2  1  0.63197  0.63197  0.00000  1
 Na  Na3  1  0.36803  -0.00000  0.00000  1
