CIF file written using JARVIS-Tools package.
data_MnCo3O8
_symmetry_space_group_name_H-M  'R-3m'
_cell_length_a       5.61957
_cell_length_b       5.61957
_cell_length_c       5.64762
_cell_angle_alpha    60.1641
_cell_angle_beta     119.836
_cell_angle_gamma    120

_symmetry_Int_Tables_number  166
_chemical_formula_structural  MnCo3O8
_chemical_formula_sum  MnCo3O8
_cell_volume  126.42408861980286
_cell_formula_units_Z  1
loop_
  _symmetry_equiv_pos_site_id
 _symmetry_equiv_pos_as_xyz
 1  'x, y, z'
loop_
 _atom_site_type_symbol
 _atom_site_label
 _atom_site_symmetry_multiplicity
 _atom_site_fract_x
 _atom_site_fract_y
 _atom_site_fract_z
 _atom_site_fract_occupancy
 Co  Co1  1  0.50000  0.50000  0.00000  1
 Co  Co2  1  0.50000  0.00000  0.00000  1
 Co  Co3  1  -0.00000  0.50000  -0.00000  1
 Mn  Mn1  1  0.50000  0.50000  0.50000  1
 O  O1  1  0.73789  0.70929  0.76650  1
 O  O2  1  0.73789  0.26211  0.76650  1
 O  O3  1  0.26563  0.73437  0.79687  1
 O  O4  1  0.29071  0.26211  0.76650  1
 O  O5  1  0.70929  0.73789  0.23350  1
 O  O6  1  0.73437  0.26563  0.20313  1
 O  O7  1  0.26211  0.73789  0.23350  1
 O  O8  1  0.26211  0.29071  0.23350  1
