CIF file written using JARVIS-Tools package.
data_Ca2Ti3O8
_symmetry_space_group_name_H-M  'C2/m'
_cell_length_a       5.08269
_cell_length_b       6.10622
_cell_length_c       6.36722
_cell_angle_alpha    118.653
_cell_angle_beta     107.937
_cell_angle_gamma    90

_symmetry_Int_Tables_number  12
_chemical_formula_structural  Ca2Ti3O8
_chemical_formula_sum  Ca2Ti3O8
_cell_volume  162.3838042347753
_cell_formula_units_Z  1
loop_
  _symmetry_equiv_pos_site_id
 _symmetry_equiv_pos_as_xyz
 1  'x, y, z'
loop_
 _atom_site_type_symbol
 _atom_site_label
 _atom_site_symmetry_multiplicity
 _atom_site_fract_x
 _atom_site_fract_y
 _atom_site_fract_z
 _atom_site_fract_occupancy
 Ca  Ca1  1  0.66187  0.72551  0.45102  1
 Ca  Ca2  1  0.33813  0.27449  0.54898  1
 O  O1  1  0.04790  0.39564  0.79128  1
 O  O2  1  0.95210  0.60436  0.20872  1
 O  O3  1  0.09398  0.89999  0.79997  1
 O  O4  1  0.90602  0.10001  0.20003  1
 O  O5  1  0.39409  0.32481  0.20858  1
 O  O6  1  0.39409  0.88377  0.20858  1
 O  O7  1  0.60591  0.11623  0.79142  1
 O  O8  1  0.60591  0.67519  0.79142  1
 Ti  Ti1  1  0.50000  1.00000  0.00000  1
 Ti  Ti2  1  1.00000  0.73398  0.00000  1
 Ti  Ti3  1  1.00000  0.26602  -0.00000  1
