CIF file written using JARVIS-Tools package.
data_Li2Mn3CuO8
_symmetry_space_group_name_H-M  'Cc'
_cell_length_a       5.70873
_cell_length_b       5.72605
_cell_length_c       9.59838
_cell_angle_alpha    86.6945
_cell_angle_beta     91.6571
_cell_angle_gamma    120.1

_symmetry_Int_Tables_number  9
_chemical_formula_structural  Li2Mn3CuO8
_chemical_formula_sum  Li4Mn6Cu2O6
_cell_volume  270.9941673179387
_cell_formula_units_Z  2
loop_
  _symmetry_equiv_pos_site_id
 _symmetry_equiv_pos_as_xyz
 1  'x, y, z'
loop_
 _atom_site_type_symbol
 _atom_site_label
 _atom_site_symmetry_multiplicity
 _atom_site_fract_x
 _atom_site_fract_y
 _atom_site_fract_z
 _atom_site_fract_occupancy
 Cu  Cu1  1  0.67089  0.34021  0.99468  1
 Cu  Cu2  1  0.32911  0.66932  0.49468  1
 Li  Li1  1  0.32564  0.64915  0.89492  1
 Li  Li2  1  0.00838  0.02597  0.99613  1
 Li  Li3  1  -0.00838  0.01759  0.49613  1
 Li  Li4  1  0.67436  0.32351  0.39492  1
 Mn  Mn1  1  0.17738  0.83762  0.21387  1
 Mn  Mn2  1  0.67321  0.83476  0.21492  1
 Mn  Mn3  1  0.81897  0.16300  0.71548  1
 Mn  Mn4  1  0.32679  0.16155  0.71492  1
 Mn  Mn5  1  0.82262  0.66023  0.71387  1
 Mn  Mn6  1  0.18103  0.34403  0.21548  1
 O  O1  1  0.14911  0.32112  0.60626  1
 O  O2  1  0.14490  0.84815  0.60739  1
 O  O3  1  0.95573  0.46500  0.82986  1
 O  O4  1  0.34209  0.68099  0.10786  1
 O  O5  1  0.01118  0.99567  0.31413  1
 O  O6  1  0.98882  0.98450  0.81413  1
 O  O7  1  0.04427  0.50927  0.32986  1
 O  O8  1  0.85510  0.70325  0.10739  1
 O  O9  1  0.67579  0.84611  0.60536  1
 O  O10  1  0.50675  0.46470  0.83194  1
 O  O11  1  0.50275  0.00910  0.82112  1
 O  O12  1  0.65791  0.33889  0.60786  1
 O  O13  1  0.49325  0.95795  0.33194  1
 O  O14  1  0.32421  0.17031  0.10536  1
 O  O15  1  0.49725  0.50635  0.32112  1
 O  O16  1  0.85089  0.17201  0.10626  1
