CIF file written using JARVIS-Tools package.
data_CeCuSn
_symmetry_space_group_name_H-M  'P6_3mc'
_cell_length_a       4.60716
_cell_length_b       4.60716
_cell_length_c       7.53335
_cell_angle_alpha    90
_cell_angle_beta     90
_cell_angle_gamma    120

_symmetry_Int_Tables_number  186
_chemical_formula_structural  CeCuSn
_chemical_formula_sum  Ce2Cu2Sn2
_cell_volume  138.47979140483648
_cell_formula_units_Z  2
loop_
  _symmetry_equiv_pos_site_id
 _symmetry_equiv_pos_as_xyz
 1  'x, y, z'
loop_
 _atom_site_type_symbol
 _atom_site_label
 _atom_site_symmetry_multiplicity
 _atom_site_fract_x
 _atom_site_fract_y
 _atom_site_fract_z
 _atom_site_fract_occupancy
 Ce  Ce1  1  0.00000  0.00000  0.51214  1
 Ce  Ce2  1  0.00000  0.00000  0.01214  1
 Cu  Cu1  1  0.66667  0.33333  0.20573  1
 Cu  Cu2  1  0.33333  0.66667  0.70573  1
 Sn  Sn1  1  0.33333  0.66667  0.27453  1
 Sn  Sn2  1  0.66667  0.33333  0.77453  1
