CIF file written using JARVIS-Tools package.
data_SmNiB4
_symmetry_space_group_name_H-M  'I4/mmm'
_cell_length_a       6.89736
_cell_length_b       6.89736
_cell_length_c       6.89736
_cell_angle_alpha    112.775
_cell_angle_beta     112.775
_cell_angle_gamma    103.049

_symmetry_Int_Tables_number  139
_chemical_formula_structural  SmNiB4
_chemical_formula_sum  Sm4Ni4B6
_cell_volume  250.2522483966994
_cell_formula_units_Z  4
loop_
  _symmetry_equiv_pos_site_id
 _symmetry_equiv_pos_as_xyz
 1  'x, y, z'
loop_
 _atom_site_type_symbol
 _atom_site_label
 _atom_site_symmetry_multiplicity
 _atom_site_fract_x
 _atom_site_fract_y
 _atom_site_fract_z
 _atom_site_fract_occupancy
 B  B1  1  0.88822  0.27521  0.16343  1
 B  B2  1  0.41668  0.41668  0.52871  1
 B  B3  1  0.88798  0.88798  0.47129  1
 B  B4  1  0.58331  0.11202  0.00000  1
 B  B5  1  0.72479  0.11178  0.83657  1
 B  B6  1  0.58331  0.58331  0.47129  1
 B  B7  1  0.11202  0.11202  0.52871  1
 B  B8  1  0.11202  0.58331  -0.00000  1
 B  B9  1  0.41668  0.88798  0.00000  1
 B  B10  1  0.11178  0.27521  0.38699  1
 B  B11  1  0.88822  0.72479  0.61301  1
 B  B12  1  0.27521  0.88822  0.16343  1
 B  B13  1  0.11178  0.72479  0.83657  1
 B  B14  1  0.72479  0.88822  0.61301  1
 B  B15  1  0.27521  0.11178  0.38699  1
 B  B16  1  0.88798  0.41668  -0.00000  1
 Ni  Ni1  1  0.27184  0.50000  0.77184  1
 Ni  Ni2  1  0.72816  0.50000  0.22816  1
 Ni  Ni3  1  0.50000  0.72816  0.22816  1
 Ni  Ni4  1  0.50000  0.27184  0.77184  1
 Sm  Sm1  1  0.79412  0.79412  -0.00000  1
 Sm  Sm2  1  0.20588  0.20588  -0.00000  1
 Sm  Sm3  1  0.25000  0.75000  0.50000  1
 Sm  Sm4  1  0.75000  0.25000  0.50000  1
