CIF file written using JARVIS-Tools package.
data_Yb4Cl6O
_symmetry_space_group_name_H-M  'P6_3mc'
_cell_length_a       8.88107
_cell_length_b       8.88107
_cell_length_c       6.69877
_cell_angle_alpha    90
_cell_angle_beta     90
_cell_angle_gamma    120

_symmetry_Int_Tables_number  186
_chemical_formula_structural  Yb4Cl6O
_chemical_formula_sum  Yb8Cl2O2
_cell_volume  457.5678833426208
_cell_formula_units_Z  2
loop_
  _symmetry_equiv_pos_site_id
 _symmetry_equiv_pos_as_xyz
 1  'x, y, z'
loop_
 _atom_site_type_symbol
 _atom_site_label
 _atom_site_symmetry_multiplicity
 _atom_site_fract_x
 _atom_site_fract_y
 _atom_site_fract_z
 _atom_site_fract_occupancy
 Cl  Cl1  1  0.13741  0.86259  0.61121  1
 Cl  Cl2  1  0.53479  0.06958  0.78856  1
 Cl  Cl3  1  0.46521  0.53479  0.28856  1
 Cl  Cl4  1  0.86259  0.72519  0.11121  1
 Cl  Cl5  1  0.46521  0.93042  0.28856  1
 Cl  Cl6  1  0.86259  0.13741  0.11121  1
 Cl  Cl7  1  0.53479  0.46521  0.78856  1
 Cl  Cl8  1  0.93042  0.46521  0.78856  1
 Cl  Cl9  1  0.72519  0.86259  0.61121  1
 Cl  Cl10  1  0.13741  0.27481  0.61121  1
 Cl  Cl11  1  0.06958  0.53479  0.28856  1
 Cl  Cl12  1  0.27481  0.13741  0.11121  1
 O  O1  1  0.66667  0.33333  0.39405  1
 O  O2  1  0.33333  0.66667  0.89405  1
 Yb  Yb1  1  0.66667  0.33333  0.06992  1
 Yb  Yb2  1  0.80185  0.19815  0.49840  1
 Yb  Yb3  1  0.80185  0.60370  0.49840  1
 Yb  Yb4  1  0.19815  0.39630  0.99840  1
 Yb  Yb5  1  0.19815  0.80185  0.99840  1
 Yb  Yb6  1  0.60370  0.80185  0.99840  1
 Yb  Yb7  1  0.39630  0.19815  0.49840  1
 Yb  Yb8  1  0.33333  0.66667  0.56992  1
