CIF file written using JARVIS-Tools package.
data_NaNdS2
_symmetry_space_group_name_H-M  'R-3m'
_cell_length_a       4.11938
_cell_length_b       4.11938
_cell_length_c       7.03202
_cell_angle_alpha    72.9683
_cell_angle_beta     72.9683
_cell_angle_gamma    60

_symmetry_Int_Tables_number  166
_chemical_formula_structural  NaNdS2
_chemical_formula_sum  NaNdS2
_cell_volume  97.2513542961449
_cell_formula_units_Z  1
loop_
  _symmetry_equiv_pos_site_id
 _symmetry_equiv_pos_as_xyz
 1  'x, y, z'
loop_
 _atom_site_type_symbol
 _atom_site_label
 _atom_site_symmetry_multiplicity
 _atom_site_fract_x
 _atom_site_fract_y
 _atom_site_fract_z
 _atom_site_fract_occupancy
 Na  Na1  1  0.50000  0.50000  0.50000  1
 Nd  Nd1  1  0.00000  0.00000  0.00000  1
 S  S1  1  0.74573  0.74573  0.76282  1
 S  S2  1  0.25427  0.25427  0.23718  1
