CIF file written using JARVIS-Tools package.
data_KAlSiO4
_symmetry_space_group_name_H-M  'P6_3'
_cell_length_a       5.18136
_cell_length_b       5.18136
_cell_length_c       8.83884
_cell_angle_alpha    90
_cell_angle_beta     90
_cell_angle_gamma    120

_symmetry_Int_Tables_number  173
_chemical_formula_structural  KAlSiO4
_chemical_formula_sum  K2Al2Si2O8
_cell_volume  205.5004549458656
_cell_formula_units_Z  2
loop_
  _symmetry_equiv_pos_site_id
 _symmetry_equiv_pos_as_xyz
 1  'x, y, z'
loop_
 _atom_site_type_symbol
 _atom_site_label
 _atom_site_symmetry_multiplicity
 _atom_site_fract_x
 _atom_site_fract_y
 _atom_site_fract_z
 _atom_site_fract_occupancy
 Al  Al1  1  0.66667  0.33333  0.45065  1
 Al  Al2  1  0.33333  0.66667  0.95065  1
 K  K1  1  0.00000  0.00000  0.75777  1
 K  K2  1  0.00000  0.00000  0.25777  1
 O  O1  1  0.37309  0.38794  0.51006  1
 O  O2  1  0.38794  0.01485  0.01006  1
 O  O3  1  0.98515  0.37309  0.01006  1
 O  O4  1  0.01485  0.62691  0.51006  1
 O  O5  1  0.61206  0.98515  0.51006  1
 O  O6  1  0.62691  0.61206  0.01006  1
 O  O7  1  0.33333  0.66667  0.75274  1
 O  O8  1  0.66667  0.33333  0.25274  1
 Si  Si1  1  0.33333  0.66667  0.56805  1
 Si  Si2  1  0.66667  0.33333  0.06805  1
