CIF file written using JARVIS-Tools package.
data_Ca2SnS4
_symmetry_space_group_name_H-M  'Pbam'
_cell_length_a       3.97232
_cell_length_b       7.09342
_cell_length_c       11.3948
_cell_angle_alpha    90
_cell_angle_beta     90
_cell_angle_gamma    90

_symmetry_Int_Tables_number  55
_chemical_formula_structural  Ca2SnS4
_chemical_formula_sum  Ca4Sn2S8
_cell_volume  321.0741741059142
_cell_formula_units_Z  2
loop_
  _symmetry_equiv_pos_site_id
 _symmetry_equiv_pos_as_xyz
 1  'x, y, z'
loop_
 _atom_site_type_symbol
 _atom_site_label
 _atom_site_symmetry_multiplicity
 _atom_site_fract_x
 _atom_site_fract_y
 _atom_site_fract_z
 _atom_site_fract_occupancy
 Ca  Ca1  1  0.50000  0.40586  0.81557  1
 Ca  Ca2  1  0.50000  0.59414  0.18443  1
 Ca  Ca3  1  0.50000  0.90586  0.68443  1
 Ca  Ca4  1  0.50000  0.09414  0.31557  1
 S  S1  1  0.50000  0.26171  0.55164  1
 S  S2  1  0.50000  0.73829  0.44836  1
 S  S3  1  0.50000  0.76171  0.94836  1
 S  S4  1  0.50000  0.23829  0.05164  1
 S  S5  1  0.00000  0.12602  0.79420  1
 S  S6  1  0.00000  0.87398  0.20580  1
 S  S7  1  0.00000  0.62602  0.70580  1
 S  S8  1  0.00000  0.37398  0.29420  1
 Sn  Sn1  1  0.00000  0.50000  0.50000  1
 Sn  Sn2  1  0.00000  0.00000  0.00000  1
