CIF file written using JARVIS-Tools package.
data_AlTlMo2O8
_symmetry_space_group_name_H-M  'P-3m1'
_cell_length_a       5.59965
_cell_length_b       5.59965
_cell_length_c       7.32347
_cell_angle_alpha    90
_cell_angle_beta     90
_cell_angle_gamma    120

_symmetry_Int_Tables_number  164
_chemical_formula_structural  AlTlMo2O8
_chemical_formula_sum  AlTlMo2O8
_cell_volume  198.87027659697696
_cell_formula_units_Z  1
loop_
  _symmetry_equiv_pos_site_id
 _symmetry_equiv_pos_as_xyz
 1  'x, y, z'
loop_
 _atom_site_type_symbol
 _atom_site_label
 _atom_site_symmetry_multiplicity
 _atom_site_fract_x
 _atom_site_fract_y
 _atom_site_fract_z
 _atom_site_fract_occupancy
 Al  Al1  1  0.00000  0.00000  0.00000  1
 Mo  Mo1  1  0.66667  0.33333  0.77052  1
 Mo  Mo2  1  0.33333  0.66667  0.22948  1
 O  O1  1  0.84156  0.68312  0.84742  1
 O  O2  1  0.84156  0.15844  0.84742  1
 O  O3  1  0.31688  0.15844  0.84742  1
 O  O4  1  0.68312  0.84156  0.15258  1
 O  O5  1  0.33333  0.66667  0.46665  1
 O  O6  1  0.66667  0.33333  0.53335  1
 O  O7  1  0.15844  0.31688  0.15258  1
 O  O8  1  0.15844  0.84156  0.15258  1
 Tl  Tl1  1  0.00000  0.00000  0.50000  1
