CIF file written using JARVIS-Tools package.
data_MgFe10O16
_symmetry_space_group_name_H-M  'R3m'
_cell_length_a       5.71919
_cell_length_b       5.71919
_cell_length_c       11.4469
_cell_angle_alpha    60.0245
_cell_angle_beta     60.0245
_cell_angle_gamma    60

_symmetry_Int_Tables_number  160
_chemical_formula_structural  MgFe10O16
_chemical_formula_sum  MgFe0O6
_cell_volume  264.8514689811599
_cell_formula_units_Z  1
loop_
  _symmetry_equiv_pos_site_id
 _symmetry_equiv_pos_as_xyz
 1  'x, y, z'
loop_
 _atom_site_type_symbol
 _atom_site_label
 _atom_site_symmetry_multiplicity
 _atom_site_fract_x
 _atom_site_fract_y
 _atom_site_fract_z
 _atom_site_fract_occupancy
 Fe  Fe1  1  0.49492  0.49492  0.25720  1
 Fe  Fe2  1  0.87551  0.87551  0.93673  1
 Fe  Fe3  1  0.50285  0.00850  0.74290  1
 Fe  Fe4  1  0.00850  0.50285  0.74290  1
 Fe  Fe5  1  0.87949  0.87949  0.43077  1
 Fe  Fe6  1  0.50285  0.50285  0.74290  1
 Fe  Fe7  1  0.11794  0.11794  0.57309  1
 Fe  Fe8  1  0.99575  0.49492  0.25720  1
 Fe  Fe9  1  0.49492  0.99575  0.25720  1
 Fe  Fe10  1  0.50026  0.50026  -0.00039  1
 Mg  Mg1  1  0.12313  0.12313  0.06530  1
 O  O1  1  0.26489  0.26489  0.13256  1
 O  O2  1  0.70509  0.26489  0.13256  1
 O  O3  1  0.73864  0.73864  0.86865  1
 O  O4  1  0.26489  0.70509  0.13256  1
 O  O5  1  0.75803  0.27538  0.35428  1
 O  O6  1  0.73854  0.73854  0.14219  1
 O  O7  1  0.25295  0.25295  0.37057  1
 O  O8  1  0.74125  0.74125  0.63812  1
 O  O9  1  0.73337  0.24249  0.64083  1
 O  O10  1  0.26374  0.26374  0.85438  1
 O  O11  1  0.24249  0.73337  0.64083  1
 O  O12  1  0.27538  0.75803  0.35428  1
 O  O13  1  0.73864  0.28542  0.86865  1
 O  O14  1  0.24249  0.24249  0.64083  1
 O  O15  1  0.75803  0.75803  0.35428  1
 O  O16  1  0.28542  0.73864  0.86865  1
