CIF file written using JARVIS-Tools package.
data_K4Zr5O12
_symmetry_space_group_name_H-M  'P-3m1'
_cell_length_a       5.85931
_cell_length_b       5.85931
_cell_length_c       10.5058
_cell_angle_alpha    90
_cell_angle_beta     90
_cell_angle_gamma    120

_symmetry_Int_Tables_number  164
_chemical_formula_structural  K4Zr5O12
_chemical_formula_sum  K4Zr5O2
_cell_volume  312.3564244054752
_cell_formula_units_Z  1
loop_
  _symmetry_equiv_pos_site_id
 _symmetry_equiv_pos_as_xyz
 1  'x, y, z'
loop_
 _atom_site_type_symbol
 _atom_site_label
 _atom_site_symmetry_multiplicity
 _atom_site_fract_x
 _atom_site_fract_y
 _atom_site_fract_z
 _atom_site_fract_occupancy
 K  K1  1  0.66667  0.33333  0.38675  1
 K  K2  1  0.33333  0.66667  0.61325  1
 K  K3  1  0.00000  0.00000  0.17790  1
 K  K4  1  0.00000  0.00000  0.82210  1
 O  O1  1  0.98110  0.49055  0.87711  1
 O  O2  1  0.67030  0.83515  0.37843  1
 O  O3  1  0.50945  0.49055  0.87711  1
 O  O4  1  0.49055  0.98110  0.12289  1
 O  O5  1  0.50945  0.01890  0.87711  1
 O  O6  1  0.49055  0.50945  0.12289  1
 O  O7  1  0.32970  0.16485  0.62157  1
 O  O8  1  0.83515  0.16485  0.62157  1
 O  O9  1  0.01890  0.50945  0.12289  1
 O  O10  1  0.16485  0.83515  0.37843  1
 O  O11  1  0.83515  0.67030  0.62157  1
 O  O12  1  0.16485  0.32970  0.37843  1
 Zr  Zr1  1  0.00000  0.00000  0.50000  1
 Zr  Zr2  1  0.33333  0.66667  0.97572  1
 Zr  Zr3  1  0.66667  0.33333  0.02428  1
 Zr  Zr4  1  0.33333  0.66667  0.28325  1
 Zr  Zr5  1  0.66667  0.33333  0.71675  1
