CIF file written using JARVIS-Tools package.
data_TlAuCl4
_symmetry_space_group_name_H-M  'C2/c'
_cell_length_a       5.72668
_cell_length_b       6.67475
_cell_length_c       9.85725
_cell_angle_alpha    100.21
_cell_angle_beta     90
_cell_angle_gamma    115.403

_symmetry_Int_Tables_number  15
_chemical_formula_structural  TlAuCl4
_chemical_formula_sum  Tl2Au2Cl8
_cell_volume  333.73778150190856
_cell_formula_units_Z  2
loop_
  _symmetry_equiv_pos_site_id
 _symmetry_equiv_pos_as_xyz
 1  'x, y, z'
loop_
 _atom_site_type_symbol
 _atom_site_label
 _atom_site_symmetry_multiplicity
 _atom_site_fract_x
 _atom_site_fract_y
 _atom_site_fract_z
 _atom_site_fract_occupancy
 Au  Au1  1  0.00000  0.50000  -0.00000  1
 Au  Au2  1  0.50000  0.50000  0.50000  1
 Cl  Cl1  1  0.71008  0.53471  0.85113  1
 Cl  Cl2  1  0.17536  0.46529  0.64887  1
 Cl  Cl3  1  0.28992  0.46529  0.14887  1
 Cl  Cl4  1  0.82464  0.53471  0.35113  1
 Cl  Cl5  1  0.31279  0.11112  0.42893  1
 Cl  Cl6  1  0.20167  0.88888  0.07107  1
 Cl  Cl7  1  0.68721  0.88888  0.57107  1
 Cl  Cl8  1  0.79833  0.11112  0.92893  1
 Tl  Tl1  1  0.23519  0.00000  0.75000  1
 Tl  Tl2  1  0.76481  0.00000  0.25000  1
