CIF file written using JARVIS-Tools package.
data_NdTaO4
_symmetry_space_group_name_H-M  'P2/c'
_cell_length_a       5.27523
_cell_length_b       5.62512
_cell_length_c       5.46818
_cell_angle_alpha    90
_cell_angle_beta     96.7642
_cell_angle_gamma    90

_symmetry_Int_Tables_number  13
_chemical_formula_structural  NdTaO4
_chemical_formula_sum  Nd2Ta2O8
_cell_volume  161.13221869507547
_cell_formula_units_Z  2
loop_
  _symmetry_equiv_pos_site_id
 _symmetry_equiv_pos_as_xyz
 1  'x, y, z'
loop_
 _atom_site_type_symbol
 _atom_site_label
 _atom_site_symmetry_multiplicity
 _atom_site_fract_x
 _atom_site_fract_y
 _atom_site_fract_z
 _atom_site_fract_occupancy
 Nd  Nd1  1  0.00000  0.76403  0.25000  1
 Nd  Nd2  1  0.00000  0.23597  0.75000  1
 O  O1  1  0.27434  0.56137  0.99056  1
 O  O2  1  0.72566  0.56137  0.50944  1
 O  O3  1  0.72566  0.43863  0.00944  1
 O  O4  1  0.27434  0.43863  0.49056  1
 O  O5  1  0.74361  0.09134  0.39012  1
 O  O6  1  0.25639  0.09134  0.10988  1
 O  O7  1  0.25639  0.90866  0.60988  1
 O  O8  1  0.74361  0.90866  0.89012  1
 Ta  Ta1  1  0.50000  0.68801  0.75000  1
 Ta  Ta2  1  0.50000  0.31199  0.25000  1
