CIF file written using JARVIS-Tools package.
data_TaHO3
_symmetry_space_group_name_H-M  'I4_1/amd'
_cell_length_a       7.49117
_cell_length_b       7.49116
_cell_length_c       7.73452
_cell_angle_alpha    58.9195
_cell_angle_beta     58.9194
_cell_angle_gamma    62.1612

_symmetry_Int_Tables_number  141
_chemical_formula_structural  TaHO3
_chemical_formula_sum  Ta4H4O2
_cell_volume  306.2447099874254
_cell_formula_units_Z  4
loop_
  _symmetry_equiv_pos_site_id
 _symmetry_equiv_pos_as_xyz
 1  'x, y, z'
loop_
 _atom_site_type_symbol
 _atom_site_label
 _atom_site_symmetry_multiplicity
 _atom_site_fract_x
 _atom_site_fract_y
 _atom_site_fract_z
 _atom_site_fract_occupancy
 H  H1  1  0.17728  0.17728  0.57272  1
 H  H2  1  0.82272  0.82272  0.42728  1
 H  H3  1  0.42728  0.42728  0.82272  1
 H  H4  1  0.57272  0.57272  0.17728  1
 O  O1  1  0.05053  0.69947  0.69947  1
 O  O2  1  0.91822  0.91822  0.33178  1
 O  O3  1  0.94947  0.30053  0.94947  1
 O  O4  1  0.94947  0.30053  0.30053  1
 O  O5  1  0.30053  0.94947  0.94947  1
 O  O6  1  0.66822  0.66822  0.08178  1
 O  O7  1  0.69947  0.05053  0.69947  1
 O  O8  1  0.30053  0.94947  0.30053  1
 O  O9  1  0.69947  0.05053  0.05053  1
 O  O10  1  0.08178  0.08178  0.66822  1
 O  O11  1  0.05053  0.69947  0.05053  1
 O  O12  1  0.33178  0.33178  0.91822  1
 Ta  Ta1  1  -0.00000  -0.00000  0.50000  1
 Ta  Ta2  1  0.00000  0.00000  0.00000  1
 Ta  Ta3  1  0.50000  0.00000  0.00000  1
 Ta  Ta4  1  0.00000  0.50000  0.00000  1
