CIF file written using JARVIS-Tools package.
data_Li2MnO2F
_symmetry_space_group_name_H-M  'Cc'
_cell_length_a       5.15174
_cell_length_b       5.15174
_cell_length_c       9.33553
_cell_angle_alpha    78.6619
_cell_angle_beta     101.338
_cell_angle_gamma    68.7448

_symmetry_Int_Tables_number  9
_chemical_formula_structural  Li2MnO2F
_chemical_formula_sum  Li8Mn4O8F4
_cell_volume  216.4620265154385
_cell_formula_units_Z  4
loop_
  _symmetry_equiv_pos_site_id
 _symmetry_equiv_pos_as_xyz
 1  'x, y, z'
loop_
 _atom_site_type_symbol
 _atom_site_label
 _atom_site_symmetry_multiplicity
 _atom_site_fract_x
 _atom_site_fract_y
 _atom_site_fract_z
 _atom_site_fract_occupancy
 F  F1  1  0.19057  0.03337  0.42387  1
 F  F2  1  0.46912  0.25492  0.91356  1
 F  F3  1  0.74508  0.53088  0.41356  1
 F  F4  1  0.96663  0.80943  0.92387  1
 Li  Li1  1  0.87720  0.38408  0.24566  1
 Li  Li2  1  0.61592  0.12280  0.74566  1
 Li  Li3  1  0.11957  0.63147  0.72823  1
 Li  Li4  1  0.81007  0.95769  0.10600  1
 Li  Li5  1  0.36853  0.88043  0.22823  1
 Li  Li6  1  0.04231  0.18993  0.60600  1
 Li  Li7  1  0.95496  0.78999  0.41118  1
 Li  Li8  1  0.21001  0.04504  0.91118  1
 Mn  Mn1  1  0.54588  0.70544  0.59316  1
 Mn  Mn2  1  0.70009  0.54425  0.91610  1
 Mn  Mn3  1  0.29456  0.45412  0.09316  1
 Mn  Mn4  1  0.45575  0.29991  0.41610  1
 O  O1  1  0.74889  0.95541  0.57349  1
 O  O2  1  0.33344  0.46897  0.57237  1
 O  O3  1  0.86147  0.40708  0.75619  1
 O  O4  1  0.04459  0.25111  0.07349  1
 O  O5  1  0.53103  0.66656  0.07237  1
 O  O6  1  0.59292  0.13853  0.25619  1
 O  O7  1  0.37635  0.85495  0.76019  1
 O  O8  1  0.14505  0.62365  0.26019  1
