CIF file written using JARVIS-Tools package.
data_KBS2
_symmetry_space_group_name_H-M  'R-3c'
_cell_length_a       9.42348
_cell_length_b       9.42349
_cell_length_c       9.42349
_cell_angle_alpha    111.915
_cell_angle_beta     111.915
_cell_angle_gamma    111.915

_symmetry_Int_Tables_number  167
_chemical_formula_structural  KBS2
_chemical_formula_sum  K6B6S2
_cell_volume  578.6278675965882
_cell_formula_units_Z  6
loop_
  _symmetry_equiv_pos_site_id
 _symmetry_equiv_pos_as_xyz
 1  'x, y, z'
loop_
 _atom_site_type_symbol
 _atom_site_label
 _atom_site_symmetry_multiplicity
 _atom_site_fract_x
 _atom_site_fract_y
 _atom_site_fract_z
 _atom_site_fract_occupancy
 B  B1  1  0.25000  0.36530  0.13470  1
 B  B2  1  0.36530  0.13470  0.25000  1
 B  B3  1  0.13470  0.25000  0.36530  1
 B  B4  1  0.63470  0.86530  0.75000  1
 B  B5  1  0.75000  0.63470  0.86530  1
 B  B6  1  0.86530  0.75000  0.63470  1
 K  K1  1  0.70078  0.79922  0.25000  1
 K  K2  1  0.20078  0.75000  0.29922  1
 K  K3  1  0.75000  0.29922  0.20078  1
 K  K4  1  0.29922  0.20078  0.75000  1
 K  K5  1  0.79922  0.25000  0.70078  1
 K  K6  1  0.25000  0.70078  0.79922  1
 S  S1  1  0.36954  0.25000  0.13046  1
 S  S2  1  0.86954  0.63046  0.75000  1
 S  S3  1  0.75000  0.86954  0.63046  1
 S  S4  1  0.47886  0.02114  0.25000  1
 S  S5  1  0.25000  0.47886  0.02114  1
 S  S6  1  0.52114  0.97886  0.75000  1
 S  S7  1  0.75000  0.52114  0.97886  1
 S  S8  1  0.97886  0.75000  0.52114  1
 S  S9  1  0.25000  0.13046  0.36954  1
 S  S10  1  0.13046  0.36954  0.25000  1
 S  S11  1  0.02114  0.25000  0.47886  1
 S  S12  1  0.63046  0.75000  0.86954  1
