CIF file written using JARVIS-Tools package.
data_Na3AsSe3
_symmetry_space_group_name_H-M  'P2_13'
_cell_length_a       8.87704
_cell_length_b       8.87704
_cell_length_c       8.87704
_cell_angle_alpha    90
_cell_angle_beta     90
_cell_angle_gamma    90

_symmetry_Int_Tables_number  198
_chemical_formula_structural  Na3AsSe3
_chemical_formula_sum  Na2As4Se2
_cell_volume  699.5278720601706
_cell_formula_units_Z  4
loop_
  _symmetry_equiv_pos_site_id
 _symmetry_equiv_pos_as_xyz
 1  'x, y, z'
loop_
 _atom_site_type_symbol
 _atom_site_label
 _atom_site_symmetry_multiplicity
 _atom_site_fract_x
 _atom_site_fract_y
 _atom_site_fract_z
 _atom_site_fract_occupancy
 As  As1  1  0.96948  0.53052  0.46948  1
 As  As2  1  0.03052  0.03052  0.03052  1
 As  As3  1  0.46948  0.96948  0.53052  1
 As  As4  1  0.53052  0.46948  0.96948  1
 Na  Na1  1  0.58288  0.58288  0.58288  1
 Na  Na2  1  0.91712  0.41712  0.08288  1
 Na  Na3  1  0.08288  0.91712  0.41712  1
 Na  Na4  1  0.41712  0.08288  0.91712  1
 Na  Na5  1  0.82321  0.17679  0.67679  1
 Na  Na6  1  0.68629  0.18629  0.31371  1
 Na  Na7  1  0.31371  0.68629  0.18629  1
 Na  Na8  1  0.18629  0.31371  0.68629  1
 Na  Na9  1  0.32321  0.32321  0.32321  1
 Na  Na10  1  0.17679  0.67679  0.82321  1
 Na  Na11  1  0.67679  0.82321  0.17679  1
 Na  Na12  1  0.81371  0.81371  0.81371  1
 Se  Se1  1  0.61272  0.50095  0.23062  1
 Se  Se2  1  0.88728  0.49905  0.73062  1
 Se  Se3  1  0.00095  0.26938  0.38728  1
 Se  Se4  1  0.38728  0.00095  0.26938  1
 Se  Se5  1  -0.00095  0.76938  0.11272  1
 Se  Se6  1  0.73062  0.88728  0.49905  1
 Se  Se7  1  0.11272  -0.00095  0.76938  1
 Se  Se8  1  0.76938  0.11272  -0.00095  1
 Se  Se9  1  0.26938  0.38728  0.00095  1
 Se  Se10  1  0.50095  0.23062  0.61272  1
 Se  Se11  1  0.49905  0.73062  0.88728  1
 Se  Se12  1  0.23062  0.61272  0.50095  1
