CIF file written using JARVIS-Tools package.
data_ScBO3
_symmetry_space_group_name_H-M  'R-3c'
_cell_length_a       5.80474
_cell_length_b       5.80475
_cell_length_c       5.80474
_cell_angle_alpha    48.7733
_cell_angle_beta     48.7732
_cell_angle_gamma    48.7733

_symmetry_Int_Tables_number  167
_chemical_formula_structural  ScBO3
_chemical_formula_sum  Sc2B2O6
_cell_volume  101.53509473532142
_cell_formula_units_Z  2
loop_
  _symmetry_equiv_pos_site_id
 _symmetry_equiv_pos_as_xyz
 1  'x, y, z'
loop_
 _atom_site_type_symbol
 _atom_site_label
 _atom_site_symmetry_multiplicity
 _atom_site_fract_x
 _atom_site_fract_y
 _atom_site_fract_z
 _atom_site_fract_occupancy
 B  B1  1  0.75000  0.75000  0.75000  1
 B  B2  1  0.25000  0.25000  0.25000  1
 O  O1  1  0.75000  0.03904  0.46096  1
 O  O2  1  0.46096  0.75000  0.03904  1
 O  O3  1  0.96096  0.53904  0.25000  1
 O  O4  1  0.25000  0.96096  0.53904  1
 O  O5  1  0.53904  0.25000  0.96096  1
 O  O6  1  0.03904  0.46096  0.75000  1
 Sc  Sc1  1  0.50000  0.50000  0.50000  1
 Sc  Sc2  1  0.00000  0.00000  0.00000  1
