CIF file written using JARVIS-Tools package.
data_PbF3
_symmetry_space_group_name_H-M  'P4_2/mcm'
_cell_length_a       5.36968
_cell_length_b       5.36968
_cell_length_c       9.01059
_cell_angle_alpha    90
_cell_angle_beta     90
_cell_angle_gamma    90

_symmetry_Int_Tables_number  132
_chemical_formula_structural  PbF3
_chemical_formula_sum  Pb4F2
_cell_volume  259.8068704641453
_cell_formula_units_Z  4
loop_
  _symmetry_equiv_pos_site_id
 _symmetry_equiv_pos_as_xyz
 1  'x, y, z'
loop_
 _atom_site_type_symbol
 _atom_site_label
 _atom_site_symmetry_multiplicity
 _atom_site_fract_x
 _atom_site_fract_y
 _atom_site_fract_z
 _atom_site_fract_occupancy
 F  F1  1  0.20341  0.20425  0.59218  1
 F  F2  1  0.79659  0.79575  0.59218  1
 F  F3  1  0.20425  0.79659  0.40782  1
 F  F4  1  0.79575  0.20341  0.40782  1
 F  F5  1  0.28261  0.28261  0.25000  1
 F  F6  1  0.28261  0.71739  0.75000  1
 F  F7  1  0.71739  0.28261  0.75000  1
 F  F8  1  0.71739  0.71739  0.25000  1
 F  F9  1  0.79659  0.20425  0.09218  1
 F  F10  1  0.20425  0.20341  0.90782  1
 F  F11  1  0.79575  0.79659  0.90782  1
 F  F12  1  0.20341  0.79575  0.09218  1
 Pb  Pb1  1  0.50000  0.50000  0.50000  1
 Pb  Pb2  1  0.50000  0.50000  0.00000  1
 Pb  Pb3  1  0.00000  0.00000  0.75000  1
 Pb  Pb4  1  0.00000  0.00000  0.25000  1
