CIF file written using JARVIS-Tools package.
data_Ti2Co12P7
_symmetry_space_group_name_H-M  'P-6'
_cell_length_a       8.87906
_cell_length_b       3.49939
_cell_length_c       8.87906
_cell_angle_alpha    90
_cell_angle_beta     120
_cell_angle_gamma    90

_symmetry_Int_Tables_number  174
_chemical_formula_structural  Ti2Co12P7
_chemical_formula_sum  Ti2Co2P7
_cell_volume  238.921923051625
_cell_formula_units_Z  1
loop_
  _symmetry_equiv_pos_site_id
 _symmetry_equiv_pos_as_xyz
 1  'x, y, z'
loop_
 _atom_site_type_symbol
 _atom_site_label
 _atom_site_symmetry_multiplicity
 _atom_site_fract_x
 _atom_site_fract_y
 _atom_site_fract_z
 _atom_site_fract_occupancy
 Co  Co1  1  0.55946  0.00000  0.62526  1
 Co  Co2  1  0.76842  0.50000  0.86639  1
 Co  Co3  1  0.13360  0.50000  0.90203  1
 Co  Co4  1  0.09797  0.50000  0.23158  1
 Co  Co5  1  0.88207  0.00000  0.72192  1
 Co  Co6  1  0.27807  0.00000  0.16015  1
 Co  Co7  1  0.83985  0.00000  0.11793  1
 Co  Co8  1  0.94437  0.50000  0.55826  1
 Co  Co9  1  0.44174  0.50000  0.38611  1
 Co  Co10  1  0.37474  0.00000  0.93419  1
 Co  Co11  1  0.06581  0.00000  0.44055  1
 Co  Co12  1  0.61389  0.50000  0.05564  1
 P  P1  1  -0.00001  0.00000  -0.00000  1
 P  P2  1  0.87864  0.50000  0.28922  1
 P  P3  1  0.71078  0.50000  0.58942  1
 P  P4  1  0.58612  0.00000  0.87863  1
 P  P5  1  0.12137  0.00000  0.70749  1
 P  P6  1  0.29252  0.00000  0.41389  1
 P  P7  1  0.41057  0.50000  0.12135  1
 Ti  Ti1  1  0.33334  0.50000  0.66666  1
 Ti  Ti2  1  0.66666  0.00000  0.33333  1
