CIF file written using JARVIS-Tools package.
data_Li5VF8
_symmetry_space_group_name_H-M  'Cmmm'
_cell_length_a       5.06356
_cell_length_b       5.06356
_cell_length_c       5.8827
_cell_angle_alpha    90
_cell_angle_beta     90
_cell_angle_gamma    111.51

_symmetry_Int_Tables_number  65
_chemical_formula_structural  Li5VF8
_chemical_formula_sum  Li5VF8
_cell_volume  140.3258271462592
_cell_formula_units_Z  1
loop_
  _symmetry_equiv_pos_site_id
 _symmetry_equiv_pos_as_xyz
 1  'x, y, z'
loop_
 _atom_site_type_symbol
 _atom_site_label
 _atom_site_symmetry_multiplicity
 _atom_site_fract_x
 _atom_site_fract_y
 _atom_site_fract_z
 _atom_site_fract_occupancy
 F  F1  1  0.26401  0.73599  0.50000  1
 F  F2  1  0.26840  0.73160  0.00000  1
 F  F3  1  0.27021  0.27021  0.25854  1
 F  F4  1  0.27021  0.27021  0.74146  1
 F  F5  1  0.72979  0.72979  0.25854  1
 F  F6  1  0.72979  0.72979  0.74146  1
 F  F7  1  0.73160  0.26840  0.00000  1
 F  F8  1  0.73599  0.26401  0.50000  1
 Li  Li1  1  0.00000  0.50000  0.22670  1
 Li  Li2  1  0.00000  0.50000  0.77330  1
 Li  Li3  1  0.50000  0.50000  0.00000  1
 Li  Li4  1  0.50000  0.00000  0.22670  1
 Li  Li5  1  0.50000  0.00000  0.77330  1
 V  V1  1  0.50000  0.50000  0.50000  1
