CIF file written using JARVIS-Tools package.
data_LiNiSnO4
_symmetry_space_group_name_H-M  'C2/m'
_cell_length_a       5.88501
_cell_length_b       6.0452
_cell_length_c       6.04467
_cell_angle_alpha    62.4007
_cell_angle_beta     60.9435
_cell_angle_gamma    60.9394

_symmetry_Int_Tables_number  12
_chemical_formula_structural  LiNiSnO4
_chemical_formula_sum  Li2Ni2Sn2O8
_cell_volume  156.87114849204374
_cell_formula_units_Z  2
loop_
  _symmetry_equiv_pos_site_id
 _symmetry_equiv_pos_as_xyz
 1  'x, y, z'
loop_
 _atom_site_type_symbol
 _atom_site_label
 _atom_site_symmetry_multiplicity
 _atom_site_fract_x
 _atom_site_fract_y
 _atom_site_fract_z
 _atom_site_fract_occupancy
 Li  Li1  1  0.11999  0.12657  0.12655  1
 Li  Li2  1  0.88001  0.87343  0.87345  1
 Ni  Ni1  1  0.00000  0.50000  0.50000  1
 Ni  Ni2  1  0.50000  0.50000  0.50000  1
 O  O1  1  0.26731  0.24961  0.24956  1
 O  O2  1  0.24510  0.28197  0.70549  1
 O  O3  1  0.24518  0.70539  0.28208  1
 O  O4  1  0.71944  0.27005  0.27008  1
 O  O5  1  0.28056  0.72995  0.72992  1
 O  O6  1  0.75490  0.71804  0.29451  1
 O  O7  1  0.75482  0.29461  0.71792  1
 O  O8  1  0.73269  0.75039  0.75044  1
 Sn  Sn1  1  0.50000  0.00000  0.50000  1
 Sn  Sn2  1  0.50000  0.50000  0.00000  1
