CIF file written using JARVIS-Tools package.
data_AsH3
_symmetry_space_group_name_H-M  'P4_232'
_cell_length_a       6.01467
_cell_length_b       6.01467
_cell_length_c       6.01467
_cell_angle_alpha    90
_cell_angle_beta     90
_cell_angle_gamma    90

_symmetry_Int_Tables_number  208
_chemical_formula_structural  AsH3
_chemical_formula_sum  As4H2
_cell_volume  217.5884795656104
_cell_formula_units_Z  4
loop_
  _symmetry_equiv_pos_site_id
 _symmetry_equiv_pos_as_xyz
 1  'x, y, z'
loop_
 _atom_site_type_symbol
 _atom_site_label
 _atom_site_symmetry_multiplicity
 _atom_site_fract_x
 _atom_site_fract_y
 _atom_site_fract_z
 _atom_site_fract_occupancy
 As  As1  1  0.25000  0.75000  0.75000  1
 As  As2  1  0.75000  0.75000  0.25000  1
 As  As3  1  0.75000  0.25000  0.75000  1
 As  As4  1  0.25000  0.25000  0.25000  1
 H  H1  1  0.31826  0.50000  0.00000  1
 H  H2  1  0.81826  0.50000  0.00000  1
 H  H3  1  0.50000  0.00000  0.81826  1
 H  H4  1  0.00000  0.81826  0.50000  1
 H  H5  1  0.18174  0.50000  0.00000  1
 H  H6  1  0.68174  0.50000  0.00000  1
 H  H7  1  0.50000  0.00000  0.31826  1
 H  H8  1  0.50000  0.00000  0.68174  1
 H  H9  1  0.00000  0.68174  0.50000  1
 H  H10  1  0.00000  0.31826  0.50000  1
 H  H11  1  0.00000  0.18174  0.50000  1
 H  H12  1  0.50000  0.00000  0.18174  1
