CIF file written using JARVIS-Tools package.
data_LiAuO2
_symmetry_space_group_name_H-M  'I4_122'
_cell_length_a       4.22995
_cell_length_b       4.22995
_cell_length_c       6.11621
_cell_angle_alpha    110.231
_cell_angle_beta     110.231
_cell_angle_gamma    90

_symmetry_Int_Tables_number  98
_chemical_formula_structural  LiAuO2
_chemical_formula_sum  Li2Au2O4
_cell_volume  95.4557717654028
_cell_formula_units_Z  2
loop_
  _symmetry_equiv_pos_site_id
 _symmetry_equiv_pos_as_xyz
 1  'x, y, z'
loop_
 _atom_site_type_symbol
 _atom_site_label
 _atom_site_symmetry_multiplicity
 _atom_site_fract_x
 _atom_site_fract_y
 _atom_site_fract_z
 _atom_site_fract_occupancy
 Au  Au1  1  0.50000  0.50000  -0.00000  1
 Au  Au2  1  0.75000  0.25000  0.50000  1
 Li  Li1  1  0.25000  0.75000  0.50000  1
 Li  Li2  1  0.00000  0.00000  0.00000  1
 O  O1  1  0.12500  0.63146  0.75000  1
 O  O2  1  0.62500  0.11854  0.75000  1
 O  O3  1  0.36854  0.87500  0.25000  1
 O  O4  1  0.88146  0.37500  0.25000  1
