CIF file written using JARVIS-Tools package.
data_TiO2
_symmetry_space_group_name_H-M  'P2_1/c'
_cell_length_a       4.83002
_cell_length_b       4.90278
_cell_length_c       5.06151
_cell_angle_alpha    90
_cell_angle_beta     99.7751
_cell_angle_gamma    90

_symmetry_Int_Tables_number  14
_chemical_formula_structural  TiO2
_chemical_formula_sum  Ti4O8
_cell_volume  118.1190513668259
_cell_formula_units_Z  4
loop_
  _symmetry_equiv_pos_site_id
 _symmetry_equiv_pos_as_xyz
 1  'x, y, z'
loop_
 _atom_site_type_symbol
 _atom_site_label
 _atom_site_symmetry_multiplicity
 _atom_site_fract_x
 _atom_site_fract_y
 _atom_site_fract_z
 _atom_site_fract_occupancy
 O  O1  1  0.55604  0.25830  0.03149  1
 O  O2  1  0.44396  0.75830  0.46851  1
 O  O3  1  0.44396  0.74170  0.96851  1
 O  O4  1  0.55604  0.24170  0.53149  1
 O  O5  1  0.93460  0.67371  0.65213  1
 O  O6  1  0.06540  0.17371  0.84787  1
 O  O7  1  0.06540  0.32629  0.34787  1
 O  O8  1  0.93460  0.82629  0.15213  1
 Ti  Ti1  1  0.72179  0.55339  0.28627  1
 Ti  Ti2  1  0.27821  0.05339  0.21373  1
 Ti  Ti3  1  0.27821  0.44661  0.71373  1
 Ti  Ti4  1  0.72179  0.94661  0.78627  1
