CIF file written using JARVIS-Tools package.
data_BaTiO3
_symmetry_space_group_name_H-M  'P6_3/mmc'
_cell_length_a       5.7671
_cell_length_b       5.7671
_cell_length_c       14.0538
_cell_angle_alpha    90
_cell_angle_beta     90
_cell_angle_gamma    120

_symmetry_Int_Tables_number  194
_chemical_formula_structural  BaTiO3
_chemical_formula_sum  Ba6Ti6O8
_cell_volume  404.79765427271445
_cell_formula_units_Z  6
loop_
  _symmetry_equiv_pos_site_id
 _symmetry_equiv_pos_as_xyz
 1  'x, y, z'
loop_
 _atom_site_type_symbol
 _atom_site_label
 _atom_site_symmetry_multiplicity
 _atom_site_fract_x
 _atom_site_fract_y
 _atom_site_fract_z
 _atom_site_fract_occupancy
 Ba  Ba1  1  0.66667  0.33333  0.59663  1
 Ba  Ba2  1  0.33333  0.66667  0.09663  1
 Ba  Ba3  1  0.33333  0.66667  0.40337  1
 Ba  Ba4  1  0.66667  0.33333  0.90337  1
 Ba  Ba5  1  0.00000  0.00000  0.25000  1
 Ba  Ba6  1  0.00000  0.00000  0.75000  1
 O  O1  1  0.16528  0.83472  0.91944  1
 O  O2  1  0.16528  0.83472  0.58056  1
 O  O3  1  0.83472  0.66943  0.08056  1
 O  O4  1  0.33057  0.16528  0.08056  1
 O  O5  1  0.03458  0.51729  0.75000  1
 O  O6  1  0.83472  0.16528  0.08056  1
 O  O7  1  0.33057  0.16528  0.41944  1
 O  O8  1  0.16528  0.33057  0.58056  1
 O  O9  1  0.66943  0.83472  0.58056  1
 O  O10  1  0.83472  0.66943  0.41944  1
 O  O11  1  0.16528  0.33057  0.91944  1
 O  O12  1  0.51729  0.48271  0.25000  1
 O  O13  1  0.96542  0.48271  0.25000  1
 O  O14  1  0.66943  0.83472  0.91944  1
 O  O15  1  0.48271  0.51729  0.75000  1
 O  O16  1  0.83472  0.16528  0.41944  1
 O  O17  1  0.48271  0.96542  0.75000  1
 O  O18  1  0.51729  0.03458  0.25000  1
 Ti  Ti1  1  0.33333  0.66667  0.65376  1
 Ti  Ti2  1  0.66667  0.33333  0.34624  1
 Ti  Ti3  1  0.33333  0.66667  0.84624  1
 Ti  Ti4  1  0.66667  0.33333  0.15376  1
 Ti  Ti5  1  0.00000  0.00000  0.50000  1
 Ti  Ti6  1  0.00000  0.00000  0.00000  1
