CIF file written using JARVIS-Tools package.
data_K3B12H12I
_symmetry_space_group_name_H-M  'R-3m'
_cell_length_a       6.9091
_cell_length_b       6.90911
_cell_length_c       6.90911
_cell_angle_alpha    93.8631
_cell_angle_beta     93.8632
_cell_angle_gamma    93.8631

_symmetry_Int_Tables_number  166
_chemical_formula_structural  K3B12H12I
_chemical_formula_sum  K3B2H2I
_cell_volume  327.4567343517109
_cell_formula_units_Z  1
loop_
  _symmetry_equiv_pos_site_id
 _symmetry_equiv_pos_as_xyz
 1  'x, y, z'
loop_
 _atom_site_type_symbol
 _atom_site_label
 _atom_site_symmetry_multiplicity
 _atom_site_fract_x
 _atom_site_fract_y
 _atom_site_fract_z
 _atom_site_fract_occupancy
 B  B1  1  0.83865  0.12388  0.12388  1
 B  B2  1  0.87612  0.16135  0.87612  1
 B  B3  1  0.87612  0.87612  0.16135  1
 B  B4  1  0.06226  0.23807  0.06226  1
 B  B5  1  0.23807  0.06226  0.06226  1
 B  B6  1  0.76193  0.93774  0.93774  1
 B  B7  1  0.93774  0.93774  0.76193  1
 B  B8  1  0.06226  0.06226  0.23807  1
 B  B9  1  0.12388  0.12388  0.83865  1
 B  B10  1  0.12388  0.83865  0.12388  1
 B  B11  1  0.16135  0.87612  0.87612  1
 B  B12  1  0.93774  0.76193  0.93774  1
 H  H1  1  0.89312  0.89312  0.59292  1
 H  H2  1  0.27431  0.78644  0.78644  1
 H  H3  1  0.21356  0.72569  0.21356  1
 H  H4  1  0.78644  0.27431  0.78644  1
 H  H5  1  0.78644  0.78644  0.27431  1
 H  H6  1  0.21356  0.21356  0.72569  1
 H  H7  1  0.10688  0.40708  0.10688  1
 H  H8  1  0.10688  0.10688  0.40708  1
 H  H9  1  0.40708  0.10688  0.10688  1
 H  H10  1  0.59292  0.89312  0.89312  1
 H  H11  1  0.89312  0.59292  0.89312  1
 H  H12  1  0.72569  0.21356  0.21356  1
 I  I1  1  0.50000  0.50000  0.50000  1
 K  K1  1  0.50000  0.50000  -0.00000  1
 K  K2  1  -0.00000  0.50000  0.50000  1
 K  K3  1  0.50000  0.00000  0.50000  1
