CIF file written using JARVIS-Tools package.
data_Li2FeSiCO7
_symmetry_space_group_name_H-M  'P2_1/m'
_cell_length_a       5.12745
_cell_length_b       6.1559
_cell_length_c       8.45294
_cell_angle_alpha    90
_cell_angle_beta     92.302
_cell_angle_gamma    90

_symmetry_Int_Tables_number  11
_chemical_formula_structural  Li2FeSiCO7
_chemical_formula_sum  Li4Fe2Si2C2O4
_cell_volume  266.59357367006567
_cell_formula_units_Z  2
loop_
  _symmetry_equiv_pos_site_id
 _symmetry_equiv_pos_as_xyz
 1  'x, y, z'
loop_
 _atom_site_type_symbol
 _atom_site_label
 _atom_site_symmetry_multiplicity
 _atom_site_fract_x
 _atom_site_fract_y
 _atom_site_fract_z
 _atom_site_fract_occupancy
 C  C1  1  0.27523  0.25000  0.04707  1
 C  C2  1  0.72477  0.75000  0.95293  1
 Fe  Fe1  1  0.20807  0.25000  0.34600  1
 Fe  Fe2  1  0.79193  0.75000  0.65400  1
 Li  Li1  1  0.78059  0.47622  0.21471  1
 Li  Li2  1  0.78059  0.02378  0.21471  1
 Li  Li3  1  0.21941  0.52378  0.78529  1
 Li  Li4  1  0.21941  0.97622  0.78529  1
 O  O1  1  0.71573  0.75000  0.10250  1
 O  O2  1  0.94895  0.75000  0.88202  1
 O  O3  1  0.47901  0.25000  0.14302  1
 O  O4  1  0.19807  0.95745  0.32650  1
 O  O5  1  0.19807  0.54255  0.32650  1
 O  O6  1  0.05105  0.25000  0.11798  1
 O  O7  1  0.61828  0.75000  0.46095  1
 O  O8  1  0.80193  0.04255  0.67350  1
 O  O9  1  0.17578  0.75000  0.61096  1
 O  O10  1  0.80193  0.45745  0.67350  1
 O  O11  1  0.82422  0.25000  0.38904  1
 O  O12  1  0.52099  0.75000  0.85698  1
 O  O13  1  0.38172  0.25000  0.53905  1
 O  O14  1  0.28427  0.25000  0.89750  1
 Si  Si1  1  0.70491  0.25000  0.56444  1
 Si  Si2  1  0.29509  0.75000  0.43556  1
