CIF file written using JARVIS-Tools package.
data_Pr3Si2ClO8
_symmetry_space_group_name_H-M  'C2/c'
_cell_length_a       6.48888
_cell_length_b       7.84838
_cell_length_c       8.87569
_cell_angle_alpha    97.6577
_cell_angle_beta     90
_cell_angle_gamma    114.418

_symmetry_Int_Tables_number  15
_chemical_formula_structural  Pr3Si2ClO8
_chemical_formula_sum  Pr6Si4Cl2O6
_cell_volume  407.1517664456891
_cell_formula_units_Z  2
loop_
  _symmetry_equiv_pos_site_id
 _symmetry_equiv_pos_as_xyz
 1  'x, y, z'
loop_
 _atom_site_type_symbol
 _atom_site_label
 _atom_site_symmetry_multiplicity
 _atom_site_fract_x
 _atom_site_fract_y
 _atom_site_fract_z
 _atom_site_fract_occupancy
 Cl  Cl1  1  0.02494  0.00000  0.75000  1
 Cl  Cl2  1  0.97506  -0.00000  0.25000  1
 O  O1  1  0.59303  0.71094  0.85394  1
 O  O2  1  0.45884  0.69154  0.15456  1
 O  O3  1  0.45068  0.15452  0.53233  1
 O  O4  1  0.18037  0.47629  0.91882  1
 O  O5  1  0.70385  0.15452  0.03233  1
 O  O6  1  0.70408  0.52371  0.58118  1
 O  O7  1  0.23270  0.69154  0.65456  1
 O  O8  1  0.54116  0.30846  0.84544  1
 O  O9  1  0.81963  0.52371  0.08118  1
 O  O10  1  0.11791  0.71094  0.35394  1
 O  O11  1  0.76730  0.30846  0.34544  1
 O  O12  1  0.54932  0.84548  0.46767  1
 O  O13  1  0.29615  0.84548  0.96767  1
 O  O14  1  0.88209  0.28906  0.64606  1
 O  O15  1  0.29592  0.47629  0.41882  1
 O  O16  1  0.40697  0.28906  0.14606  1
 Pr  Pr1  1  0.42551  -0.00000  0.25000  1
 Pr  Pr2  1  0.70920  0.62941  0.32885  1
 Pr  Pr3  1  0.92021  0.62941  0.82885  1
 Pr  Pr4  1  0.57449  0.00000  0.75000  1
 Pr  Pr5  1  0.29080  0.37059  0.67115  1
 Pr  Pr6  1  0.07979  0.37059  0.17115  1
 Si  Si1  1  0.28751  0.68364  0.47454  1
 Si  Si2  1  0.71249  0.31636  0.52546  1
 Si  Si3  1  0.60387  0.31636  0.02546  1
 Si  Si4  1  0.39613  0.68364  0.97454  1
