CIF file written using JARVIS-Tools package.
data_YScO3
_symmetry_space_group_name_H-M  'P6_3/mmc'
_cell_length_a       3.57771
_cell_length_b       12.3385
_cell_length_c       3.57764
_cell_angle_alpha    90
_cell_angle_beta     119.999
_cell_angle_gamma    90

_symmetry_Int_Tables_number  194
_chemical_formula_structural  YScO3
_chemical_formula_sum  Y2Sc2O6
_cell_volume  136.77274914509485
_cell_formula_units_Z  2
loop_
  _symmetry_equiv_pos_site_id
 _symmetry_equiv_pos_as_xyz
 1  'x, y, z'
loop_
 _atom_site_type_symbol
 _atom_site_label
 _atom_site_symmetry_multiplicity
 _atom_site_fract_x
 _atom_site_fract_y
 _atom_site_fract_z
 _atom_site_fract_occupancy
 O  O1  1  0.66668  0.08243  0.33338  1
 O  O2  1  0.66667  0.41757  0.33328  1
 O  O3  1  0.00004  0.25000  0.99999  1
 O  O4  1  0.99996  0.75000  0.00001  1
 O  O5  1  0.33333  0.91757  0.66672  1
 O  O6  1  0.33332  0.58243  0.66662  1
 Sc  Sc1  1  0.66670  0.25000  0.33331  1
 Sc  Sc2  1  0.33330  0.75000  0.66669  1
 Y  Y1  1  0.00001  1.00000  0.00006  1
 Y  Y2  1  0.99999  0.50000  0.99994  1
