CIF file written using JARVIS-Tools package.
data_Rb2GeS3
_symmetry_space_group_name_H-M  'C2/m'
_cell_length_a       6.88421
_cell_length_b       7.5336
_cell_length_c       8.70662
_cell_angle_alpha    72.3504
_cell_angle_beta     66.7126
_cell_angle_gamma    62.8127

_symmetry_Int_Tables_number  12
_chemical_formula_structural  Rb2GeS3
_chemical_formula_sum  Rb4Ge2S6
_cell_volume  364.7652173241823
_cell_formula_units_Z  2
loop_
  _symmetry_equiv_pos_site_id
 _symmetry_equiv_pos_as_xyz
 1  'x, y, z'
loop_
 _atom_site_type_symbol
 _atom_site_label
 _atom_site_symmetry_multiplicity
 _atom_site_fract_x
 _atom_site_fract_y
 _atom_site_fract_z
 _atom_site_fract_occupancy
 Ge  Ge1  1  0.37965  0.05380  0.18691  1
 Ge  Ge2  1  0.62035  0.94620  0.81309  1
 Rb  Rb1  1  0.08227  0.19901  0.63645  1
 Rb  Rb2  1  0.91773  0.80099  0.36355  1
 Rb  Rb3  1  0.69374  0.42888  0.18364  1
 Rb  Rb4  1  0.30626  0.57112  0.81636  1
 S  S1  1  0.61279  0.18163  0.59278  1
 S  S2  1  0.38721  0.81837  0.40722  1
 S  S3  1  0.79774  0.63056  0.77397  1
 S  S4  1  0.74709  0.00000  -0.00000  1
 S  S5  1  0.25291  -0.00000  0.00000  1
 S  S6  1  0.20226  0.36944  0.22603  1
