CIF file written using JARVIS-Tools package.
data_TiNiO3
_symmetry_space_group_name_H-M  'R-3'
_cell_length_a       5.42828
_cell_length_b       5.42814
_cell_length_c       5.4281
_cell_angle_alpha    55.555
_cell_angle_beta     55.5527
_cell_angle_gamma    55.5541

_symmetry_Int_Tables_number  148
_chemical_formula_structural  TiNiO3
_chemical_formula_sum  Ti2Ni2O6
_cell_volume  101.42326837077962
_cell_formula_units_Z  2
loop_
  _symmetry_equiv_pos_site_id
 _symmetry_equiv_pos_as_xyz
 1  'x, y, z'
loop_
 _atom_site_type_symbol
 _atom_site_label
 _atom_site_symmetry_multiplicity
 _atom_site_fract_x
 _atom_site_fract_y
 _atom_site_fract_z
 _atom_site_fract_occupancy
 Ni  Ni1  1  0.65086  0.65086  0.65086  1
 Ni  Ni2  1  0.34914  0.34914  0.34914  1
 O  O1  1  0.94558  0.23610  0.56166  1
 O  O2  1  0.56165  0.94558  0.23611  1
 O  O3  1  0.23610  0.56165  0.94558  1
 O  O4  1  0.05442  0.76390  0.43834  1
 O  O5  1  0.43835  0.05442  0.76389  1
 O  O6  1  0.76390  0.43835  0.05442  1
 Ti  Ti1  1  0.14389  0.14390  0.14390  1
 Ti  Ti2  1  0.85611  0.85610  0.85610  1
