CIF file written using JARVIS-Tools package.
data_Sr3CdPtO6
_symmetry_space_group_name_H-M  'R-3c'
_cell_length_a       6.83169
_cell_length_b       6.83169
_cell_length_c       6.83169
_cell_angle_alpha    90.1018
_cell_angle_beta     90.1018
_cell_angle_gamma    90.1018

_symmetry_Int_Tables_number  167
_chemical_formula_structural  Sr3CdPtO6
_chemical_formula_sum  Sr6Cd2Pt2O2
_cell_volume  318.8471358410036
_cell_formula_units_Z  2
loop_
  _symmetry_equiv_pos_site_id
 _symmetry_equiv_pos_as_xyz
 1  'x, y, z'
loop_
 _atom_site_type_symbol
 _atom_site_label
 _atom_site_symmetry_multiplicity
 _atom_site_fract_x
 _atom_site_fract_y
 _atom_site_fract_z
 _atom_site_fract_occupancy
 Cd  Cd1  1  0.75000  0.75000  0.75000  1
 Cd  Cd2  1  0.25000  0.25000  0.25000  1
 O  O1  1  0.94816  0.08296  0.28540  1
 O  O2  1  0.44816  0.78540  0.58296  1
 O  O3  1  0.78540  0.58296  0.44816  1
 O  O4  1  0.71460  0.05184  0.91704  1
 O  O5  1  0.05184  0.91704  0.71460  1
 O  O6  1  0.91704  0.71460  0.05184  1
 O  O7  1  0.41704  0.55184  0.21460  1
 O  O8  1  0.55184  0.21460  0.41704  1
 O  O9  1  0.21460  0.41704  0.55184  1
 O  O10  1  0.08296  0.28540  0.94816  1
 O  O11  1  0.28540  0.94816  0.08296  1
 O  O12  1  0.58296  0.44816  0.78540  1
 Pt  Pt1  1  0.00000  0.00000  0.00000  1
 Pt  Pt2  1  0.50000  0.50000  0.50000  1
 Sr  Sr1  1  0.61349  0.88651  0.25000  1
 Sr  Sr2  1  0.25000  0.61349  0.88651  1
 Sr  Sr3  1  0.88651  0.25000  0.61349  1
 Sr  Sr4  1  0.38651  0.11349  0.75000  1
 Sr  Sr5  1  0.11349  0.75000  0.38651  1
 Sr  Sr6  1  0.75000  0.38651  0.11349  1
