CIF file written using JARVIS-Tools package.
data_Ca2AlCrO5
_symmetry_space_group_name_H-M  'Ima2'
_cell_length_a       5.3579
_cell_length_b       5.66294
_cell_length_c       8.08085
_cell_angle_alpha    110.511
_cell_angle_beta     109.36
_cell_angle_gamma    90.0015

_symmetry_Int_Tables_number  46
_chemical_formula_structural  Ca2AlCrO5
_chemical_formula_sum  Ca4Al2Cr2O0
_cell_volume  214.7746059954209
_cell_formula_units_Z  2
loop_
  _symmetry_equiv_pos_site_id
 _symmetry_equiv_pos_as_xyz
 1  'x, y, z'
loop_
 _atom_site_type_symbol
 _atom_site_label
 _atom_site_symmetry_multiplicity
 _atom_site_fract_x
 _atom_site_fract_y
 _atom_site_fract_z
 _atom_site_fract_occupancy
 Al  Al1  1  0.20799  0.17275  0.49985  1
 Al  Al2  1  0.70797  0.82727  0.49985  1
 Ca  Ca1  1  0.10224  0.57676  0.21540  1
 Ca  Ca2  1  0.38674  0.86122  0.78431  1
 Ca  Ca3  1  0.88672  0.42324  0.78431  1
 Ca  Ca4  1  0.60222  0.13879  0.21540  1
 Cr  Cr1  1  0.50608  0.50000  0.99985  1
 Cr  Cr2  1  0.00608  -0.00000  0.99985  1
 O  O1  1  0.26962  0.76321  0.03581  1
 O  O2  1  0.37696  0.89696  0.49985  1
 O  O3  1  0.66897  0.57238  0.28714  1
 O  O4  1  0.87698  0.10306  0.49985  1
 O  O5  1  0.76965  0.77278  0.03586  1
 O  O6  1  0.88164  0.78508  0.71256  1
 O  O7  1  0.73378  0.22736  0.96389  1
 O  O8  1  0.38173  0.42763  0.71256  1
 O  O9  1  0.16903  0.21493  0.28715  1
 O  O10  1  0.23376  0.23666  0.96384  1
