CIF file written using JARVIS-Tools package.
data_Li2AlCoO4
_symmetry_space_group_name_H-M  'C222_1'
_cell_length_a       5.28846
_cell_length_b       5.28846
_cell_length_c       6.30372
_cell_angle_alpha    90
_cell_angle_beta     90
_cell_angle_gamma    89.692

_symmetry_Int_Tables_number  20
_chemical_formula_structural  Li2AlCoO4
_chemical_formula_sum  Li4Al2Co2O8
_cell_volume  176.29825035253393
_cell_formula_units_Z  2
loop_
  _symmetry_equiv_pos_site_id
 _symmetry_equiv_pos_as_xyz
 1  'x, y, z'
loop_
 _atom_site_type_symbol
 _atom_site_label
 _atom_site_symmetry_multiplicity
 _atom_site_fract_x
 _atom_site_fract_y
 _atom_site_fract_z
 _atom_site_fract_occupancy
 Al  Al1  1  0.32391  0.67609  0.00000  1
 Al  Al2  1  0.67609  0.32391  0.50000  1
 Co  Co1  1  0.82591  0.82591  0.75000  1
 Co  Co2  1  0.17409  0.17409  0.25000  1
 Li  Li1  1  0.31431  0.68569  0.50000  1
 Li  Li2  1  0.18215  0.18215  0.75000  1
 Li  Li3  1  0.81785  0.81785  0.25000  1
 Li  Li4  1  0.68569  0.31431  0.00000  1
 O  O1  1  0.19790  0.81792  0.23258  1
 O  O2  1  0.18208  0.80210  0.76742  1
 O  O3  1  0.29585  0.33939  0.00983  1
 O  O4  1  0.66061  0.70415  0.99017  1
 O  O5  1  0.33939  0.29585  0.49017  1
 O  O6  1  0.70415  0.66061  0.50983  1
 O  O7  1  0.80210  0.18208  0.73258  1
 O  O8  1  0.81792  0.19790  0.26742  1
