CIF file written using JARVIS-Tools package.
data_NaSr3SbO6
_symmetry_space_group_name_H-M  'R-3c'
_cell_length_a       6.8812
_cell_length_b       6.88121
_cell_length_c       6.8812
_cell_angle_alpha    91.2211
_cell_angle_beta     91.2211
_cell_angle_gamma    91.221

_symmetry_Int_Tables_number  167
_chemical_formula_structural  NaSr3SbO6
_chemical_formula_sum  Na2Sr6Sb2O2
_cell_volume  325.6063162882015
_cell_formula_units_Z  2
loop_
  _symmetry_equiv_pos_site_id
 _symmetry_equiv_pos_as_xyz
 1  'x, y, z'
loop_
 _atom_site_type_symbol
 _atom_site_label
 _atom_site_symmetry_multiplicity
 _atom_site_fract_x
 _atom_site_fract_y
 _atom_site_fract_z
 _atom_site_fract_occupancy
 Na  Na1  1  0.75000  0.75000  0.75000  1
 Na  Na2  1  0.25000  0.25000  0.25000  1
 O  O1  1  0.57491  0.44547  0.78079  1
 O  O2  1  0.44547  0.78079  0.57491  1
 O  O3  1  0.05453  0.92509  0.71921  1
 O  O4  1  0.92509  0.71921  0.05453  1
 O  O5  1  0.71921  0.05453  0.92509  1
 O  O6  1  0.21921  0.42509  0.55453  1
 O  O7  1  0.42509  0.55453  0.21921  1
 O  O8  1  0.55453  0.21921  0.42509  1
 O  O9  1  0.78079  0.57491  0.44547  1
 O  O10  1  0.07491  0.28079  0.94547  1
 O  O11  1  0.94547  0.07491  0.28079  1
 O  O12  1  0.28079  0.94547  0.07491  1
 Sb  Sb1  1  0.00000  0.00000  0.00000  1
 Sb  Sb2  1  0.50000  0.50000  0.50000  1
 Sr  Sr1  1  0.25000  0.60129  0.89871  1
 Sr  Sr2  1  0.60129  0.89871  0.25000  1
 Sr  Sr3  1  0.10129  0.75000  0.39871  1
 Sr  Sr4  1  0.75000  0.39871  0.10129  1
 Sr  Sr5  1  0.39871  0.10129  0.75000  1
 Sr  Sr6  1  0.89871  0.25000  0.60129  1
