CIF file written using JARVIS-Tools package.
data_Ca2BHN2
_symmetry_space_group_name_H-M  'Pnma'
_cell_length_a       3.65458
_cell_length_b       9.16267
_cell_length_c       9.98944
_cell_angle_alpha    90
_cell_angle_beta     90
_cell_angle_gamma    90

_symmetry_Int_Tables_number  62
_chemical_formula_structural  Ca2BHN2
_chemical_formula_sum  Ca8B4H4N8
_cell_volume  334.5041387863891
_cell_formula_units_Z  4
loop_
  _symmetry_equiv_pos_site_id
 _symmetry_equiv_pos_as_xyz
 1  'x, y, z'
loop_
 _atom_site_type_symbol
 _atom_site_label
 _atom_site_symmetry_multiplicity
 _atom_site_fract_x
 _atom_site_fract_y
 _atom_site_fract_z
 _atom_site_fract_occupancy
 B  B1  1  0.75000  0.26518  0.17610  1
 B  B2  1  0.25000  0.73482  0.82390  1
 B  B3  1  0.75000  0.76518  0.32390  1
 B  B4  1  0.25000  0.23482  0.67610  1
 Ca  Ca1  1  0.75000  0.97426  0.65518  1
 Ca  Ca2  1  0.25000  0.02574  0.34482  1
 Ca  Ca3  1  0.25000  0.67633  0.52480  1
 Ca  Ca4  1  0.25000  0.52574  0.15518  1
 Ca  Ca5  1  0.75000  0.82367  0.02480  1
 Ca  Ca6  1  0.25000  0.17633  0.97520  1
 Ca  Ca7  1  0.75000  0.32367  0.47520  1
 Ca  Ca8  1  0.75000  0.47426  0.84482  1
 H  H1  1  0.25000  0.45952  0.39508  1
 H  H2  1  0.75000  0.54048  0.60492  1
 H  H3  1  0.25000  0.95952  0.10492  1
 H  H4  1  0.75000  0.04048  0.89508  1
 N  N1  1  0.25000  0.15301  0.56360  1
 N  N2  1  0.75000  0.34699  0.06360  1
 N  N3  1  0.75000  0.67874  0.21724  1
 N  N4  1  0.25000  0.32126  0.78276  1
 N  N5  1  0.75000  0.17874  0.28276  1
 N  N6  1  0.25000  0.82126  0.71724  1
 N  N7  1  0.75000  0.84699  0.43640  1
 N  N8  1  0.25000  0.65301  0.93640  1
