CIF file written using JARVIS-Tools package.
data_Li3Al2FeO6
_symmetry_space_group_name_H-M  'P-1'
_cell_length_a       5.30807
_cell_length_b       5.78313
_cell_length_c       7.77724
_cell_angle_alpha    90.7212
_cell_angle_beta     98.02
_cell_angle_gamma    90.2192

_symmetry_Int_Tables_number  2
_chemical_formula_structural  Li3Al2FeO6
_chemical_formula_sum  Li6Al4Fe2O2
_cell_volume  236.38234232099018
_cell_formula_units_Z  2
loop_
  _symmetry_equiv_pos_site_id
 _symmetry_equiv_pos_as_xyz
 1  'x, y, z'
loop_
 _atom_site_type_symbol
 _atom_site_label
 _atom_site_symmetry_multiplicity
 _atom_site_fract_x
 _atom_site_fract_y
 _atom_site_fract_z
 _atom_site_fract_occupancy
 Al  Al1  1  0.82391  0.83235  0.41184  1
 Al  Al2  1  0.34247  0.32746  0.92168  1
 Al  Al3  1  0.65753  0.67254  0.07832  1
 Al  Al4  1  0.17609  0.16765  0.58816  1
 Fe  Fe1  1  0.99236  0.66994  0.75359  1
 Fe  Fe2  1  0.00764  0.33006  0.24641  1
 Li  Li1  1  0.17772  0.84253  0.09414  1
 Li  Li2  1  0.65322  0.33684  0.58017  1
 Li  Li3  1  0.49769  0.16673  0.25563  1
 Li  Li4  1  0.50231  0.83327  0.74437  1
 Li  Li5  1  0.34678  0.66316  0.41983  1
 Li  Li6  1  0.82228  0.15747  0.90586  1
 O  O1  1  0.68830  0.67626  0.57530  1
 O  O2  1  0.47015  0.17040  0.75293  1
 O  O3  1  0.65677  0.35530  0.07814  1
 O  O4  1  0.34323  0.64470  0.92186  1
 O  O5  1  0.52985  0.82960  0.24707  1
 O  O6  1  0.14555  0.85060  0.57890  1
 O  O7  1  0.17246  0.18374  0.07516  1
 O  O8  1  0.97601  0.66659  0.25133  1
 O  O9  1  0.82754  0.81626  0.92484  1
 O  O10  1  0.85445  0.14940  0.42110  1
 O  O11  1  0.31170  0.32374  0.42470  1
 O  O12  1  0.02399  0.33341  0.74867  1
