CIF file written using JARVIS-Tools package.
data_Li7Mn5O12
_symmetry_space_group_name_H-M  'C2'
_cell_length_a       4.97607
_cell_length_b       4.97607
_cell_length_c       9.47759
_cell_angle_alpha    85.2044
_cell_angle_beta     94.7956
_cell_angle_gamma    60.8928

_symmetry_Int_Tables_number  5
_chemical_formula_structural  Li7Mn5O12
_chemical_formula_sum  Li7Mn5O2
_cell_volume  202.23006642032618
_cell_formula_units_Z  1
loop_
  _symmetry_equiv_pos_site_id
 _symmetry_equiv_pos_as_xyz
 1  'x, y, z'
loop_
 _atom_site_type_symbol
 _atom_site_label
 _atom_site_symmetry_multiplicity
 _atom_site_fract_x
 _atom_site_fract_y
 _atom_site_fract_z
 _atom_site_fract_occupancy
 Li  Li1  1  0.25512  0.25512  0.75000  1
 Li  Li2  1  0.17082  0.65821  0.51077  1
 Li  Li3  1  0.32506  0.84637  0.98940  1
 Li  Li4  1  0.65821  0.17082  0.98923  1
 Li  Li5  1  0.84637  0.32506  0.51060  1
 Li  Li6  1  0.74413  0.74413  0.25000  1
 Li  Li7  1  0.92283  0.92283  0.75000  1
 Mn  Mn1  1  0.07229  0.07229  0.25000  1
 Mn  Mn2  1  0.57949  0.57949  0.75000  1
 Mn  Mn3  1  0.00275  0.51069  0.99178  1
 Mn  Mn4  1  0.41641  0.41641  0.25000  1
 Mn  Mn5  1  0.51069  0.00275  0.50822  1
 O  O1  1  0.84109  0.64896  0.61906  1
 O  O2  1  0.77199  0.05505  0.37019  1
 O  O3  1  0.94061  0.24857  0.87273  1
 O  O4  1  0.24857  0.94061  0.62727  1
 O  O5  1  0.15427  0.33995  0.37377  1
 O  O6  1  0.33995  0.15427  0.12623  1
 O  O7  1  0.29912  0.54732  0.87149  1
 O  O8  1  0.54732  0.29912  0.62851  1
 O  O9  1  0.42798  0.72091  0.36092  1
 O  O10  1  0.72091  0.42798  0.13908  1
 O  O11  1  0.64896  0.84109  0.88094  1
 O  O12  1  0.05505  0.77199  0.12981  1
