CIF file written using JARVIS-Tools package.
data_TbAu
_symmetry_space_group_name_H-M  'Cmcm'
_cell_length_a       3.7534
_cell_length_b       4.64453
_cell_length_c       5.80172
_cell_angle_alpha    90
_cell_angle_beta     71.1269
_cell_angle_gamma    90

_symmetry_Int_Tables_number  63
_chemical_formula_structural  TbAu
_chemical_formula_sum  Tb2Au2
_cell_volume  95.70258035296033
_cell_formula_units_Z  2
loop_
  _symmetry_equiv_pos_site_id
 _symmetry_equiv_pos_as_xyz
 1  'x, y, z'
loop_
 _atom_site_type_symbol
 _atom_site_label
 _atom_site_symmetry_multiplicity
 _atom_site_fract_x
 _atom_site_fract_y
 _atom_site_fract_z
 _atom_site_fract_occupancy
 Au  Au1  1  0.40953  0.75000  0.18093  1
 Au  Au2  1  0.59047  0.25000  0.81907  1
 Tb  Tb1  1  0.13799  0.75000  0.72402  1
 Tb  Tb2  1  0.86201  0.25000  0.27598  1
