CIF file written using JARVIS-Tools package.
data_DyPRu2C
_symmetry_space_group_name_H-M  'Cmcm'
_cell_length_a       5.84289
_cell_length_b       5.84289
_cell_length_c       7.06687
_cell_angle_alpha    90
_cell_angle_beta     90
_cell_angle_gamma    142.278

_symmetry_Int_Tables_number  63
_chemical_formula_structural  DyPRu2C
_chemical_formula_sum  Dy2P2Ru4C2
_cell_volume  147.60945839095473
_cell_formula_units_Z  2
loop_
  _symmetry_equiv_pos_site_id
 _symmetry_equiv_pos_as_xyz
 1  'x, y, z'
loop_
 _atom_site_type_symbol
 _atom_site_label
 _atom_site_symmetry_multiplicity
 _atom_site_fract_x
 _atom_site_fract_y
 _atom_site_fract_z
 _atom_site_fract_occupancy
 C  C1  1  0.00000  0.00000  0.00000  1
 C  C2  1  0.00000  0.00000  0.50000  1
 Dy  Dy1  1  0.54391  0.45609  0.25000  1
 Dy  Dy2  1  0.45609  0.54391  0.75000  1
 P  P1  1  0.26833  0.73167  0.25000  1
 P  P2  1  0.73167  0.26833  0.75000  1
 Ru  Ru1  1  0.83474  0.16526  0.05313  1
 Ru  Ru2  1  0.16526  0.83474  0.94687  1
 Ru  Ru3  1  0.16526  0.83474  0.55313  1
 Ru  Ru4  1  0.83474  0.16526  0.44687  1
