CIF file written using JARVIS-Tools package.
data_Li2SnTeO6
_symmetry_space_group_name_H-M  'Pnn2'
_cell_length_a       4.92476
_cell_length_b       5.25643
_cell_length_c       8.65666
_cell_angle_alpha    90
_cell_angle_beta     90
_cell_angle_gamma    90

_symmetry_Int_Tables_number  34
_chemical_formula_structural  Li2SnTeO6
_chemical_formula_sum  Li4Sn2Te2O2
_cell_volume  224.09206578498748
_cell_formula_units_Z  2
loop_
  _symmetry_equiv_pos_site_id
 _symmetry_equiv_pos_as_xyz
 1  'x, y, z'
loop_
 _atom_site_type_symbol
 _atom_site_label
 _atom_site_symmetry_multiplicity
 _atom_site_fract_x
 _atom_site_fract_y
 _atom_site_fract_z
 _atom_site_fract_occupancy
 Li  Li1  1  0.00000  0.00000  0.30745  1
 Li  Li2  1  0.50000  0.50000  0.80745  1
 Li  Li3  1  0.50000  0.00000  0.18770  1
 Li  Li4  1  0.00000  0.50000  0.68770  1
 O  O1  1  0.79019  0.83853  0.07336  1
 O  O2  1  0.71143  0.81205  0.41192  1
 O  O3  1  0.29019  0.66147  0.57336  1
 O  O4  1  0.73414  0.33461  0.25199  1
 O  O5  1  0.70981  0.33853  0.57336  1
 O  O6  1  0.23414  0.16539  0.75199  1
 O  O7  1  0.78857  0.31205  0.91192  1
 O  O8  1  0.28857  0.18795  0.41192  1
 O  O9  1  0.76586  0.83461  0.75199  1
 O  O10  1  0.21143  0.68795  0.91192  1
 O  O11  1  0.26586  0.66539  0.25199  1
 O  O12  1  0.20981  0.16147  0.07336  1
 Sn  Sn1  1  0.00000  0.50000  0.09569  1
 Sn  Sn2  1  0.50000  0.00000  0.59569  1
 Te  Te1  1  0.50000  0.50000  0.40451  1
 Te  Te2  1  0.00000  0.00000  0.90451  1
