CIF file written using JARVIS-Tools package.
data_AsO2
_symmetry_space_group_name_H-M  'Pnma'
_cell_length_a       5.34304
_cell_length_b       7.30476
_cell_length_c       8.54434
_cell_angle_alpha    90
_cell_angle_beta     90
_cell_angle_gamma    90

_symmetry_Int_Tables_number  62
_chemical_formula_structural  AsO2
_chemical_formula_sum  As8O6
_cell_volume  333.4823265731789
_cell_formula_units_Z  8
loop_
  _symmetry_equiv_pos_site_id
 _symmetry_equiv_pos_as_xyz
 1  'x, y, z'
loop_
 _atom_site_type_symbol
 _atom_site_label
 _atom_site_symmetry_multiplicity
 _atom_site_fract_x
 _atom_site_fract_y
 _atom_site_fract_z
 _atom_site_fract_occupancy
 As  As1  1  0.25000  0.70041  0.76861  1
 As  As2  1  0.75000  0.29959  0.23139  1
 As  As3  1  0.75000  0.20041  0.73139  1
 As  As4  1  0.25000  0.79959  0.26861  1
 As  As5  1  0.25000  0.32839  0.56963  1
 As  As6  1  0.75000  0.67161  0.43037  1
 As  As7  1  0.75000  0.82839  0.93037  1
 As  As8  1  0.25000  0.17161  0.06963  1
 O  O1  1  0.25000  0.44585  0.40268  1
 O  O2  1  0.75000  0.55415  0.59732  1
 O  O3  1  0.75000  0.94585  0.09732  1
 O  O4  1  0.99477  0.17918  0.58059  1
 O  O5  1  0.25000  0.44555  0.74930  1
 O  O6  1  0.75000  0.55445  0.25070  1
 O  O7  1  0.25000  0.05415  0.90268  1
 O  O8  1  0.00523  0.82082  0.41941  1
 O  O9  1  0.99477  0.32082  0.08059  1
 O  O10  1  0.49477  0.67918  0.91941  1
 O  O11  1  0.75000  0.94555  0.75070  1
 O  O12  1  0.50523  0.17918  0.58059  1
 O  O13  1  0.00523  0.67918  0.91941  1
 O  O14  1  0.50523  0.32082  0.08059  1
 O  O15  1  0.25000  0.05445  0.24930  1
 O  O16  1  0.49477  0.82082  0.41941  1
