CIF file written using JARVIS-Tools package.
data_TaOF3
_symmetry_space_group_name_H-M  'P1'
_cell_length_a       4.97157
_cell_length_b       24.6033
_cell_length_c       4.10593
_cell_angle_alpha    118.011
_cell_angle_beta     113.431
_cell_angle_gamma    108.294

_symmetry_Int_Tables_number  1
_chemical_formula_structural  TaOF3
_chemical_formula_sum  Ta5O5F5
_cell_volume  319.833709165295
_cell_formula_units_Z  5
loop_
  _symmetry_equiv_pos_site_id
 _symmetry_equiv_pos_as_xyz
 1  'x, y, z'
loop_
 _atom_site_type_symbol
 _atom_site_label
 _atom_site_symmetry_multiplicity
 _atom_site_fract_x
 _atom_site_fract_y
 _atom_site_fract_z
 _atom_site_fract_occupancy
 F  F1  1  0.75551  0.76466  0.51179  1
 F  F2  1  0.10028  0.31407  -0.00009  1
 F  F3  1  0.03419  0.51392  -0.00345  1
 F  F4  1  0.10671  0.11203  0.11651  1
 F  F5  1  0.31097  0.06201  0.56313  1
 F  F6  1  0.67951  0.20410  0.99681  1
 F  F7  1  0.59333  0.39827  0.97599  1
 F  F8  1  0.97478  0.91972  0.07860  1
 F  F9  1  0.52259  0.81275  0.06706  1
 F  F10  1  0.86631  0.16681  0.47187  1
 F  F11  1  0.81928  0.35081  0.41573  1
 F  F12  1  0.57097  0.60967  0.03130  1
 F  F13  1  0.01352  0.72316  0.06029  1
 F  F14  1  0.74660  0.96345  0.55041  1
 F  F15  1  0.78511  0.55804  0.46170  1
 O  O1  1  0.65055  0.03957  0.25011  1
 O  O2  1  0.23668  0.87040  0.54116  1
 O  O3  1  0.27311  0.66111  0.48494  1
 O  O4  1  0.29680  0.45522  0.43228  1
 O  O5  1  0.34360  0.24415  0.38190  1
 Ta  Ta1  1  0.72603  0.75878  0.96559  1
 Ta  Ta2  1  0.75588  0.55180  0.91648  1
 Ta  Ta3  1  0.79344  0.34375  0.86609  1
 Ta  Ta4  1  0.83461  0.14023  0.84994  1
 Ta  Ta5  1  0.70965  0.96153  0.01385  1
