CIF file written using JARVIS-Tools package.
data_K2ZnBr4
_symmetry_space_group_name_H-M  'P2_1'
_cell_length_a       7.253
_cell_length_b       7.44058
_cell_length_c       8.89411
_cell_angle_alpha    90
_cell_angle_beta     108.376
_cell_angle_gamma    90

_symmetry_Int_Tables_number  4
_chemical_formula_structural  K2ZnBr4
_chemical_formula_sum  K4Zn2Br8
_cell_volume  455.508437695091
_cell_formula_units_Z  2
loop_
  _symmetry_equiv_pos_site_id
 _symmetry_equiv_pos_as_xyz
 1  'x, y, z'
loop_
 _atom_site_type_symbol
 _atom_site_label
 _atom_site_symmetry_multiplicity
 _atom_site_fract_x
 _atom_site_fract_y
 _atom_site_fract_z
 _atom_site_fract_occupancy
 Br  Br1  1  0.90365  0.70881  0.07733  1
 Br  Br2  1  0.09635  0.20881  0.92267  1
 Br  Br3  1  0.91721  0.71639  0.62370  1
 Br  Br4  1  0.08279  0.21639  0.37630  1
 Br  Br5  1  0.51977  0.00740  0.74500  1
 Br  Br6  1  0.48023  0.50740  0.25500  1
 Br  Br7  1  0.47483  0.49955  0.73171  1
 Br  Br8  1  0.52517  0.99955  0.26829  1
 K  K1  1  0.23323  0.77351  0.43098  1
 K  K2  1  0.76677  0.27351  0.56902  1
 K  K3  1  0.28237  0.77098  0.94750  1
 K  K4  1  0.71763  0.27098  0.05250  1
 Zn  Zn1  1  0.71960  0.73855  0.79788  1
 Zn  Zn2  1  0.28040  0.23855  0.20212  1
