CIF file written using JARVIS-Tools package.
data_PrAu
_symmetry_space_group_name_H-M  'Cmcm'
_cell_length_a       3.943
_cell_length_b       4.78673
_cell_length_c       6.00759
_cell_angle_alpha    90
_cell_angle_beta     70.8424
_cell_angle_gamma    90

_symmetry_Int_Tables_number  63
_chemical_formula_structural  PrAu
_chemical_formula_sum  Pr2Au2
_cell_volume  107.10818380974496
_cell_formula_units_Z  2
loop_
  _symmetry_equiv_pos_site_id
 _symmetry_equiv_pos_as_xyz
 1  'x, y, z'
loop_
 _atom_site_type_symbol
 _atom_site_label
 _atom_site_symmetry_multiplicity
 _atom_site_fract_x
 _atom_site_fract_y
 _atom_site_fract_z
 _atom_site_fract_occupancy
 Au  Au1  1  0.41172  0.75000  0.17657  1
 Au  Au2  1  0.58828  0.25000  0.82343  1
 Pr  Pr1  1  0.13646  0.75000  0.72707  1
 Pr  Pr2  1  0.86354  0.25000  0.27293  1
