CIF file written using JARVIS-Tools package.
data_RbCdBr3
_symmetry_space_group_name_H-M  'Pnma'
_cell_length_a       4.24309
_cell_length_b       9.43152
_cell_length_c       15.6617
_cell_angle_alpha    90
_cell_angle_beta     90
_cell_angle_gamma    90

_symmetry_Int_Tables_number  62
_chemical_formula_structural  RbCdBr3
_chemical_formula_sum  Rb4Cd4Br2
_cell_volume  626.7644956402038
_cell_formula_units_Z  4
loop_
  _symmetry_equiv_pos_site_id
 _symmetry_equiv_pos_as_xyz
 1  'x, y, z'
loop_
 _atom_site_type_symbol
 _atom_site_label
 _atom_site_symmetry_multiplicity
 _atom_site_fract_x
 _atom_site_fract_y
 _atom_site_fract_z
 _atom_site_fract_occupancy
 Br  Br1  1  0.75000  0.97155  0.89662  1
 Br  Br2  1  0.75000  0.71163  0.21197  1
 Br  Br3  1  0.75000  0.47155  0.60338  1
 Br  Br4  1  0.75000  0.21163  0.28803  1
 Br  Br5  1  0.25000  0.78837  0.71197  1
 Br  Br6  1  0.25000  0.28837  0.78803  1
 Br  Br7  1  0.25000  0.16613  0.50465  1
 Br  Br8  1  0.75000  0.33387  0.00465  1
 Br  Br9  1  0.25000  0.66613  0.99535  1
 Br  Br10  1  0.25000  0.52845  0.39662  1
 Br  Br11  1  0.25000  0.02845  0.10338  1
 Br  Br12  1  0.75000  0.83387  0.49535  1
 Cd  Cd1  1  0.25000  0.66525  0.55762  1
 Cd  Cd2  1  0.75000  0.33475  0.44238  1
 Cd  Cd3  1  0.25000  0.16525  0.94238  1
 Cd  Cd4  1  0.75000  0.83475  0.05762  1
 Rb  Rb1  1  0.25000  0.92741  0.32678  1
 Rb  Rb2  1  0.75000  0.07259  0.67322  1
 Rb  Rb3  1  0.25000  0.42741  0.17322  1
 Rb  Rb4  1  0.75000  0.57259  0.82678  1
