CIF file written using JARVIS-Tools package.
data_TiSnO3
_symmetry_space_group_name_H-M  'R-3'
_cell_length_a       7.51567
_cell_length_b       7.51567
_cell_length_c       7.51567
_cell_angle_alpha    39.8782
_cell_angle_beta     39.8782
_cell_angle_gamma    39.8782

_symmetry_Int_Tables_number  148
_chemical_formula_structural  TiSnO3
_chemical_formula_sum  Ti2Sn2O6
_cell_volume  157.2051703567936
_cell_formula_units_Z  2
loop_
  _symmetry_equiv_pos_site_id
 _symmetry_equiv_pos_as_xyz
 1  'x, y, z'
loop_
 _atom_site_type_symbol
 _atom_site_label
 _atom_site_symmetry_multiplicity
 _atom_site_fract_x
 _atom_site_fract_y
 _atom_site_fract_z
 _atom_site_fract_occupancy
 O  O1  1  0.05279  0.69454  0.40853  1
 O  O2  1  0.40853  0.05279  0.69454  1
 O  O3  1  0.30546  0.59147  0.94721  1
 O  O4  1  0.69454  0.40853  0.05279  1
 O  O5  1  0.59147  0.94721  0.30546  1
 O  O6  1  0.94721  0.30546  0.59147  1
 Sn  Sn1  1  0.10700  0.10700  0.10700  1
 Sn  Sn2  1  0.89300  0.89300  0.89300  1
 Ti  Ti1  1  0.32996  0.32996  0.32996  1
 Ti  Ti2  1  0.67004  0.67004  0.67004  1
