CIF file written using JARVIS-Tools package.
data_Ho2MgSi2
_symmetry_space_group_name_H-M  'P4/mbm'
_cell_length_a       7.11397
_cell_length_b       7.11397
_cell_length_c       4.19312
_cell_angle_alpha    90
_cell_angle_beta     90
_cell_angle_gamma    90

_symmetry_Int_Tables_number  127
_chemical_formula_structural  Ho2MgSi2
_chemical_formula_sum  Ho4Mg2Si4
_cell_volume  212.207979498882
_cell_formula_units_Z  2
loop_
  _symmetry_equiv_pos_site_id
 _symmetry_equiv_pos_as_xyz
 1  'x, y, z'
loop_
 _atom_site_type_symbol
 _atom_site_label
 _atom_site_symmetry_multiplicity
 _atom_site_fract_x
 _atom_site_fract_y
 _atom_site_fract_z
 _atom_site_fract_occupancy
 Ho  Ho1  1  0.67839  0.17839  0.50000  1
 Ho  Ho2  1  0.32161  0.82161  0.50000  1
 Ho  Ho3  1  0.17839  0.32161  0.50000  1
 Ho  Ho4  1  0.82161  0.67839  0.50000  1
 Mg  Mg1  1  0.00000  0.00000  0.00000  1
 Mg  Mg2  1  0.50000  0.50000  0.00000  1
 Si  Si1  1  0.11907  0.61907  0.00000  1
 Si  Si2  1  0.88093  0.38093  0.00000  1
 Si  Si3  1  0.61907  0.88093  0.00000  1
 Si  Si4  1  0.38093  0.11907  0.00000  1
