CIF file written using JARVIS-Tools package.
data_Li2VCrP2H2O10
_symmetry_space_group_name_H-M  'P-1'
_cell_length_a       5.11878
_cell_length_b       5.338
_cell_length_c       7.25664
_cell_angle_alpha    106.335
_cell_angle_beta     109.129
_cell_angle_gamma    97.7068

_symmetry_Int_Tables_number  2
_chemical_formula_structural  Li2VCrP2H2O10
_chemical_formula_sum  Li2VCrP2H2O0
_cell_volume  174.08165795035714
_cell_formula_units_Z  1
loop_
  _symmetry_equiv_pos_site_id
 _symmetry_equiv_pos_as_xyz
 1  'x, y, z'
loop_
 _atom_site_type_symbol
 _atom_site_label
 _atom_site_symmetry_multiplicity
 _atom_site_fract_x
 _atom_site_fract_y
 _atom_site_fract_z
 _atom_site_fract_occupancy
 Cr  Cr1  1  0.00000  0.00000  0.50000  1
 H  H1  1  0.36470  0.07115  0.35102  1
 H  H2  1  0.63530  0.92885  0.64898  1
 Li  Li1  1  0.74657  0.39055  0.82283  1
 Li  Li2  1  0.25343  0.60945  0.17717  1
 O  O1  1  0.26339  0.78304  0.60953  1
 O  O2  1  0.73661  0.21696  0.39047  1
 O  O3  1  0.31257  0.33469  0.66365  1
 O  O4  1  0.83588  0.04053  0.71992  1
 O  O5  1  0.89219  0.34545  0.12008  1
 O  O6  1  0.68743  0.66531  0.33635  1
 O  O7  1  0.62863  0.75301  0.93170  1
 O  O8  1  0.37137  0.24699  0.06830  1
 O  O9  1  0.10781  0.65455  0.87992  1
 O  O10  1  0.16412  0.95947  0.28008  1
 P  P1  1  0.32050  0.63360  0.76692  1
 P  P2  1  0.67950  0.36640  0.23308  1
 V  V1  1  0.00000  0.00000  0.00000  1
