CIF file written using JARVIS-Tools package.
data_Na2SnTeO6
_symmetry_space_group_name_H-M  'P2_1/c'
_cell_length_a       5.45925
_cell_length_b       5.54447
_cell_length_c       9.50906
_cell_angle_alpha    90
_cell_angle_beta     125.051
_cell_angle_gamma    90

_symmetry_Int_Tables_number  14
_chemical_formula_structural  Na2SnTeO6
_chemical_formula_sum  Na4Sn2Te2O2
_cell_volume  235.6279044341038
_cell_formula_units_Z  2
loop_
  _symmetry_equiv_pos_site_id
 _symmetry_equiv_pos_as_xyz
 1  'x, y, z'
loop_
 _atom_site_type_symbol
 _atom_site_label
 _atom_site_symmetry_multiplicity
 _atom_site_fract_x
 _atom_site_fract_y
 _atom_site_fract_z
 _atom_site_fract_occupancy
 Na  Na1  1  0.24065  0.95629  0.25041  1
 Na  Na2  1  0.75935  0.45629  0.24959  1
 Na  Na3  1  0.24065  0.54371  0.75041  1
 Na  Na4  1  0.75935  0.04371  0.74959  1
 O  O1  1  0.24325  0.19434  0.45187  1
 O  O2  1  0.66323  0.47045  0.75879  1
 O  O3  1  0.75675  0.80566  0.54813  1
 O  O4  1  0.24325  0.30566  0.95187  1
 O  O5  1  0.75675  0.69434  0.04813  1
 O  O6  1  0.86105  0.21064  0.05061  1
 O  O7  1  0.86105  0.28936  0.55061  1
 O  O8  1  0.33677  0.52955  0.24121  1
 O  O9  1  0.13895  0.71064  0.44939  1
 O  O10  1  0.66323  0.02955  0.25879  1
 O  O11  1  0.13895  0.78936  0.94939  1
 O  O12  1  0.33677  0.97045  0.74121  1
 Sn  Sn1  1  0.50000  0.00000  0.00000  1
 Sn  Sn2  1  0.50000  0.50000  0.50000  1
 Te  Te1  1  -0.00000  0.00000  0.50000  1
 Te  Te2  1  0.00000  0.50000  0.00000  1
