CIF file written using JARVIS-Tools package.
data_SrAl2O4
_symmetry_space_group_name_H-M  'P6_3'
_cell_length_a       8.97933
_cell_length_b       8.97933
_cell_length_c       8.42216
_cell_angle_alpha    90
_cell_angle_beta     90
_cell_angle_gamma    120

_symmetry_Int_Tables_number  173
_chemical_formula_structural  SrAl2O4
_chemical_formula_sum  Sr6Al2O24
_cell_volume  588.0873925266351
_cell_formula_units_Z  6
loop_
  _symmetry_equiv_pos_site_id
 _symmetry_equiv_pos_as_xyz
 1  'x, y, z'
loop_
 _atom_site_type_symbol
 _atom_site_label
 _atom_site_symmetry_multiplicity
 _atom_site_fract_x
 _atom_site_fract_y
 _atom_site_fract_z
 _atom_site_fract_occupancy
 Al  Al1  1  0.67719  0.66081  0.44723  1
 Al  Al2  1  0.32281  0.33919  0.94723  1
 Al  Al3  1  0.01639  0.67719  0.94723  1
 Al  Al4  1  0.98361  0.32281  0.44723  1
 Al  Al5  1  0.02061  0.68429  0.55419  1
 Al  Al6  1  0.33631  0.02061  0.05419  1
 Al  Al7  1  0.31571  0.33631  0.55419  1
 Al  Al8  1  0.33919  0.01639  0.44723  1
 Al  Al9  1  0.97939  0.31571  0.05419  1
 Al  Al10  1  0.66369  0.97939  0.55419  1
 Al  Al11  1  0.68429  0.66369  0.05419  1
 Al  Al12  1  0.66081  0.98361  0.94723  1
 O  O1  1  0.20972  0.41758  0.43516  1
 O  O2  1  0.79214  0.20972  0.93516  1
 O  O3  1  0.44842  0.90636  0.02033  1
 O  O4  1  0.41758  0.20786  0.93516  1
 O  O5  1  0.58242  0.79214  0.43516  1
 O  O6  1  0.09364  0.54206  0.02033  1
 O  O7  1  0.23014  0.11072  0.54003  1
 O  O8  1  0.54206  0.44842  0.52033  1
 O  O9  1  0.90636  0.45794  0.52033  1
 O  O10  1  0.27051  0.36862  0.75115  1
 O  O11  1  0.45794  0.55158  0.02033  1
 O  O12  1  0.55158  0.09364  0.52033  1
 O  O13  1  0.79028  0.58242  0.93516  1
 O  O14  1  0.11942  0.23014  0.04003  1
 O  O15  1  0.36862  0.09811  0.25115  1
 O  O16  1  0.09811  0.72949  0.75115  1
 O  O17  1  0.90189  0.27051  0.25115  1
 O  O18  1  0.63138  0.90189  0.75115  1
 O  O19  1  0.72949  0.63138  0.25115  1
 O  O20  1  0.88928  0.11942  0.54003  1
 O  O21  1  0.20786  0.79028  0.43516  1
 O  O22  1  0.76986  0.88928  0.04003  1
 O  O23  1  0.11072  0.88058  0.04003  1
 O  O24  1  0.88058  0.76986  0.54003  1
 Sr  Sr1  1  0.00000  0.00000  0.26067  1
 Sr  Sr2  1  0.00000  0.00000  0.76067  1
 Sr  Sr3  1  0.33333  0.66667  0.24231  1
 Sr  Sr4  1  0.66667  0.33333  0.74231  1
 Sr  Sr5  1  0.33333  0.66667  0.78171  1
 Sr  Sr6  1  0.66667  0.33333  0.28171  1
