CIF file written using JARVIS-Tools package.
data_Pr3TaO7
_symmetry_space_group_name_H-M  'Cmcm'
_cell_length_a       6.72148
_cell_length_b       6.72148
_cell_length_c       7.745
_cell_angle_alpha    90
_cell_angle_beta     90
_cell_angle_gamma    111.547

_symmetry_Int_Tables_number  63
_chemical_formula_structural  Pr3TaO7
_chemical_formula_sum  Pr6Ta2O4
_cell_volume  325.45336291835025
_cell_formula_units_Z  2
loop_
  _symmetry_equiv_pos_site_id
 _symmetry_equiv_pos_as_xyz
 1  'x, y, z'
loop_
 _atom_site_type_symbol
 _atom_site_label
 _atom_site_symmetry_multiplicity
 _atom_site_fract_x
 _atom_site_fract_y
 _atom_site_fract_z
 _atom_site_fract_occupancy
 O  O1  1  0.81199  0.56053  0.03597  1
 O  O2  1  0.43035  0.43035  0.25000  1
 O  O3  1  0.10611  0.84468  0.75000  1
 O  O4  1  0.89389  0.15532  0.25000  1
 O  O5  1  0.84468  0.10611  0.75000  1
 O  O6  1  0.15532  0.89389  0.25000  1
 O  O7  1  0.18801  0.43947  0.96403  1
 O  O8  1  0.81199  0.56053  0.46403  1
 O  O9  1  0.43947  0.18801  0.96403  1
 O  O10  1  0.56965  0.56965  0.75000  1
 O  O11  1  0.18801  0.43947  0.53597  1
 O  O12  1  0.56053  0.81199  0.03597  1
 O  O13  1  0.43947  0.18801  0.53597  1
 O  O14  1  0.56053  0.81199  0.46403  1
 Pr  Pr1  1  0.00000  0.00000  0.00000  1
 Pr  Pr2  1  0.00000  0.00000  0.50000  1
 Pr  Pr3  1  0.92658  0.47506  0.75000  1
 Pr  Pr4  1  0.07342  0.52494  0.25000  1
 Pr  Pr5  1  0.47506  0.92658  0.75000  1
 Pr  Pr6  1  0.52494  0.07342  0.25000  1
 Ta  Ta1  1  0.50000  0.50000  0.00000  1
 Ta  Ta2  1  0.50000  0.50000  0.50000  1
