CIF file written using JARVIS-Tools package.
data_CoPSe
_symmetry_space_group_name_H-M  'Pbca'
_cell_length_a       5.62488
_cell_length_b       5.7054
_cell_length_c       11.2706
_cell_angle_alpha    90
_cell_angle_beta     90
_cell_angle_gamma    90

_symmetry_Int_Tables_number  61
_chemical_formula_structural  CoPSe
_chemical_formula_sum  Co8P8Se8
_cell_volume  361.69790074562593
_cell_formula_units_Z  8
loop_
  _symmetry_equiv_pos_site_id
 _symmetry_equiv_pos_as_xyz
 1  'x, y, z'
loop_
 _atom_site_type_symbol
 _atom_site_label
 _atom_site_symmetry_multiplicity
 _atom_site_fract_x
 _atom_site_fract_y
 _atom_site_fract_z
 _atom_site_fract_occupancy
 Co  Co1  1  0.01365  0.17795  0.38011  1
 Co  Co2  1  0.01365  0.32205  0.88011  1
 Co  Co3  1  0.48635  0.67795  0.38011  1
 Co  Co4  1  0.98635  0.82205  0.61989  1
 Co  Co5  1  0.51365  0.32205  0.61989  1
 Co  Co6  1  0.48635  0.82205  0.88011  1
 Co  Co7  1  0.98635  0.67795  0.11989  1
 Co  Co8  1  0.51365  0.17795  0.11989  1
 P  P1  1  0.62826  0.68109  0.56463  1
 P  P2  1  0.87174  0.31891  0.06463  1
 P  P3  1  0.37174  0.18109  0.93537  1
 P  P4  1  0.12826  0.81891  0.43537  1
 P  P5  1  0.12826  0.68109  0.93537  1
 P  P6  1  0.62826  0.81891  0.06463  1
 P  P7  1  0.87174  0.18109  0.56463  1
 P  P8  1  0.37174  0.31891  0.43537  1
 Se  Se1  1  0.11907  0.06807  0.17689  1
 Se  Se2  1  0.61907  0.43193  0.82311  1
 Se  Se3  1  0.88093  0.56807  0.32311  1
 Se  Se4  1  0.38093  0.93193  0.67689  1
 Se  Se5  1  0.88093  0.93193  0.82311  1
 Se  Se6  1  0.38093  0.56807  0.17689  1
 Se  Se7  1  0.11907  0.43193  0.67689  1
 Se  Se8  1  0.61907  0.06807  0.32311  1
