CIF file written using JARVIS-Tools package.
data_K3SbSe4
_symmetry_space_group_name_H-M  'R3c'
_cell_length_a       7.98319
_cell_length_b       7.9832
_cell_length_c       7.9832
_cell_angle_alpha    91.5642
_cell_angle_beta     91.5642
_cell_angle_gamma    91.5642

_symmetry_Int_Tables_number  161
_chemical_formula_structural  K3SbSe4
_chemical_formula_sum  K6Sb2Se8
_cell_volume  508.2008519010204
_cell_formula_units_Z  2
loop_
  _symmetry_equiv_pos_site_id
 _symmetry_equiv_pos_as_xyz
 1  'x, y, z'
loop_
 _atom_site_type_symbol
 _atom_site_label
 _atom_site_symmetry_multiplicity
 _atom_site_fract_x
 _atom_site_fract_y
 _atom_site_fract_z
 _atom_site_fract_occupancy
 K  K1  1  0.46521  0.52010  -0.00004  1
 K  K2  1  -0.00004  0.46521  0.52010  1
 K  K3  1  0.52010  -0.00004  0.46521  1
 K  K4  1  0.02010  0.96521  0.49996  1
 K  K5  1  0.49996  0.02010  0.96521  1
 K  K6  1  0.96521  0.49996  0.02010  1
 Sb  Sb1  1  0.00103  0.00103  0.00103  1
 Sb  Sb2  1  0.50103  0.50103  0.50103  1
 Se  Se1  1  0.20026  0.82140  0.16754  1
 Se  Se2  1  0.31301  0.31301  0.31301  1
 Se  Se3  1  0.32140  0.70026  0.66754  1
 Se  Se4  1  0.16754  0.20026  0.82140  1
 Se  Se5  1  0.82140  0.16754  0.20026  1
 Se  Se6  1  0.70026  0.66754  0.32140  1
 Se  Se7  1  0.66754  0.32140  0.70026  1
 Se  Se8  1  0.81301  0.81301  0.81301  1
