CIF file written using JARVIS-Tools package.
data_Pr3SiAgSe7
_symmetry_space_group_name_H-M  'P6_3'
_cell_length_a       10.7813
_cell_length_b       10.7813
_cell_length_c       6.07763
_cell_angle_alpha    90
_cell_angle_beta     90
_cell_angle_gamma    120

_symmetry_Int_Tables_number  173
_chemical_formula_structural  Pr3SiAgSe7
_chemical_formula_sum  Pr6Si2Ag2Se4
_cell_volume  611.8019878982551
_cell_formula_units_Z  2
loop_
  _symmetry_equiv_pos_site_id
 _symmetry_equiv_pos_as_xyz
 1  'x, y, z'
loop_
 _atom_site_type_symbol
 _atom_site_label
 _atom_site_symmetry_multiplicity
 _atom_site_fract_x
 _atom_site_fract_y
 _atom_site_fract_z
 _atom_site_fract_occupancy
 Ag  Ag1  1  0.00000  0.00000  0.79775  1
 Ag  Ag2  1  0.00000  0.00000  0.29775  1
 Pr  Pr1  1  0.64239  0.87373  0.25987  1
 Pr  Pr2  1  0.87373  0.23134  0.75987  1
 Pr  Pr3  1  0.76866  0.64239  0.75987  1
 Pr  Pr4  1  0.23134  0.35761  0.25987  1
 Pr  Pr5  1  0.12627  0.76866  0.25987  1
 Pr  Pr6  1  0.35761  0.12627  0.75987  1
 Se  Se1  1  0.89188  0.47756  0.02271  1
 Se  Se2  1  0.17549  0.27044  0.77400  1
 Se  Se3  1  0.41432  0.89188  0.52271  1
 Se  Se4  1  0.52244  0.41432  0.02271  1
 Se  Se5  1  0.72956  0.90505  0.77400  1
 Se  Se6  1  0.10812  0.52244  0.52271  1
 Se  Se7  1  0.47756  0.58568  0.52271  1
 Se  Se8  1  0.27044  0.09495  0.27400  1
 Se  Se9  1  0.33333  0.66667  0.04613  1
 Se  Se10  1  0.66667  0.33333  0.54613  1
 Se  Se11  1  0.90505  0.17549  0.27400  1
 Se  Se12  1  0.09495  0.82451  0.77400  1
 Se  Se13  1  0.58568  0.10812  0.02271  1
 Se  Se14  1  0.82451  0.72956  0.27400  1
 Si  Si1  1  0.66667  0.33333  0.17251  1
 Si  Si2  1  0.33333  0.66667  0.67251  1
