CIF file written using JARVIS-Tools package.
data_Li2H2SeO5
_symmetry_space_group_name_H-M  'P2_1'
_cell_length_a       5.58426
_cell_length_b       4.97711
_cell_length_c       8.42563
_cell_angle_alpha    90
_cell_angle_beta     107.53
_cell_angle_gamma    90

_symmetry_Int_Tables_number  4
_chemical_formula_structural  Li2H2SeO5
_chemical_formula_sum  Li4H4Se2O0
_cell_volume  223.30226052107466
_cell_formula_units_Z  2
loop_
  _symmetry_equiv_pos_site_id
 _symmetry_equiv_pos_as_xyz
 1  'x, y, z'
loop_
 _atom_site_type_symbol
 _atom_site_label
 _atom_site_symmetry_multiplicity
 _atom_site_fract_x
 _atom_site_fract_y
 _atom_site_fract_z
 _atom_site_fract_occupancy
 H  H1  1  0.99478  0.77421  0.04557  1
 H  H2  1  0.04180  0.01543  0.18041  1
 H  H3  1  0.00522  0.27421  0.95443  1
 H  H4  1  0.95820  0.51543  0.81959  1
 Li  Li1  1  0.56012  0.41047  0.89809  1
 Li  Li2  1  0.68239  0.90096  0.50394  1
 Li  Li3  1  0.43988  0.91047  0.10191  1
 Li  Li4  1  0.31761  0.40096  0.49606  1
 O  O1  1  0.45496  0.78122  0.88935  1
 O  O2  1  0.01787  0.31104  0.32207  1
 O  O3  1  0.98213  0.81104  0.67793  1
 O  O4  1  0.54504  0.28122  0.11065  1
 O  O5  1  0.90917  0.44010  0.91385  1
 O  O6  1  0.68695  0.73631  0.29074  1
 O  O7  1  0.38183  0.77636  0.55485  1
 O  O8  1  0.31305  0.23631  0.70926  1
 O  O9  1  0.09083  0.94010  0.08615  1
 O  O10  1  0.61817  0.27636  0.44515  1
 Se  Se1  1  0.72140  0.40176  0.29353  1
 Se  Se2  1  0.27860  0.90176  0.70647  1
