CIF file written using JARVIS-Tools package.
data_As4S3
_symmetry_space_group_name_H-M  'Pnma'
_cell_length_a       7.99569
_cell_length_b       9.05442
_cell_length_c       10.2748
_cell_angle_alpha    90
_cell_angle_beta     90
_cell_angle_gamma    90

_symmetry_Int_Tables_number  62
_chemical_formula_structural  As4S3
_chemical_formula_sum  As6S2
_cell_volume  743.8584321044633
_cell_formula_units_Z  4
loop_
  _symmetry_equiv_pos_site_id
 _symmetry_equiv_pos_as_xyz
 1  'x, y, z'
loop_
 _atom_site_type_symbol
 _atom_site_label
 _atom_site_symmetry_multiplicity
 _atom_site_fract_x
 _atom_site_fract_y
 _atom_site_fract_z
 _atom_site_fract_occupancy
 As  As1  1  0.09060  0.14175  0.27717  1
 As  As2  1  0.90940  0.85825  0.72283  1
 As  As3  1  0.59060  0.85825  0.72283  1
 As  As4  1  0.90940  0.35825  0.77717  1
 As  As5  1  0.09060  0.64175  0.22283  1
 As  As6  1  0.59060  0.35825  0.77717  1
 As  As7  1  0.40940  0.14175  0.27717  1
 As  As8  1  0.75000  0.15939  0.05967  1
 As  As9  1  0.40940  0.64175  0.22283  1
 As  As10  1  0.75000  0.53172  0.92569  1
 As  As11  1  0.25000  0.96828  0.42569  1
 As  As12  1  0.75000  0.03172  0.57431  1
 As  As13  1  0.25000  0.84061  0.94033  1
 As  As14  1  0.25000  0.34061  0.55967  1
 As  As15  1  0.75000  0.65939  0.44033  1
 As  As16  1  0.25000  0.46828  0.07431  1
 S  S1  1  0.46440  0.33219  0.41222  1
 S  S2  1  0.25000  0.59525  0.88606  1
 S  S3  1  0.75000  0.40475  0.11394  1
 S  S4  1  0.75000  0.90475  0.38606  1
 S  S5  1  0.25000  0.09525  0.61394  1
 S  S6  1  0.03560  0.33219  0.41222  1
 S  S7  1  0.53560  0.66781  0.58778  1
 S  S8  1  0.03560  0.83219  0.08778  1
 S  S9  1  0.53560  0.16781  0.91222  1
 S  S10  1  0.96440  0.16781  0.91222  1
 S  S11  1  0.46440  0.83219  0.08778  1
 S  S12  1  0.96440  0.66781  0.58778  1
