CIF file written using JARVIS-Tools package.
data_Cu3Se2
_symmetry_space_group_name_H-M  'P-42_1m'
_cell_length_a       6.40454
_cell_length_b       6.40454
_cell_length_c       4.37538
_cell_angle_alpha    90
_cell_angle_beta     90
_cell_angle_gamma    90

_symmetry_Int_Tables_number  113
_chemical_formula_structural  Cu3Se2
_chemical_formula_sum  Cu6Se4
_cell_volume  179.4700075063657
_cell_formula_units_Z  2
loop_
  _symmetry_equiv_pos_site_id
 _symmetry_equiv_pos_as_xyz
 1  'x, y, z'
loop_
 _atom_site_type_symbol
 _atom_site_label
 _atom_site_symmetry_multiplicity
 _atom_site_fract_x
 _atom_site_fract_y
 _atom_site_fract_z
 _atom_site_fract_occupancy
 Cu  Cu1  1  0.00000  0.00000  0.00000  1
 Cu  Cu2  1  0.50000  0.50000  0.00000  1
 Cu  Cu3  1  0.14525  0.64525  0.75963  1
 Cu  Cu4  1  0.35475  0.14525  0.24037  1
 Cu  Cu5  1  0.64525  0.85475  0.24037  1
 Cu  Cu6  1  0.85475  0.35475  0.75963  1
 Se  Se1  1  0.26882  0.76882  0.26538  1
 Se  Se2  1  0.23118  0.26882  0.73462  1
 Se  Se3  1  0.76882  0.73118  0.73462  1
 Se  Se4  1  0.73118  0.23118  0.26538  1
