CIF file written using JARVIS-Tools package.
data_K3BiO3
_symmetry_space_group_name_H-M  'I-43m'
_cell_length_a       9.28391
_cell_length_b       9.28391
_cell_length_c       9.28391
_cell_angle_alpha    109.471
_cell_angle_beta     109.471
_cell_angle_gamma    109.471

_symmetry_Int_Tables_number  217
_chemical_formula_structural  K3BiO3
_chemical_formula_sum  K2Bi4O2
_cell_volume  615.9860305132859
_cell_formula_units_Z  4
loop_
  _symmetry_equiv_pos_site_id
 _symmetry_equiv_pos_as_xyz
 1  'x, y, z'
loop_
 _atom_site_type_symbol
 _atom_site_label
 _atom_site_symmetry_multiplicity
 _atom_site_fract_x
 _atom_site_fract_y
 _atom_site_fract_z
 _atom_site_fract_occupancy
 Bi  Bi1  1  0.00000  0.00000  0.29199  1
 Bi  Bi2  1  0.29199  0.00000  0.00000  1
 Bi  Bi3  1  0.70801  0.70801  0.70801  1
 Bi  Bi4  1  0.00000  0.29199  0.00000  1
 K  K1  1  0.51782  0.24481  0.51782  1
 K  K2  1  0.00000  0.48218  0.72699  1
 K  K3  1  0.27301  0.27301  0.75519  1
 K  K4  1  0.27301  0.75519  0.27301  1
 K  K5  1  0.24481  0.51782  0.51782  1
 K  K6  1  0.00000  0.72699  0.48218  1
 K  K7  1  0.72699  0.48218  0.00000  1
 K  K8  1  0.48218  0.72699  0.00000  1
 K  K9  1  0.51782  0.51782  0.24481  1
 K  K10  1  0.48218  0.00000  0.72699  1
 K  K11  1  0.72699  0.00000  0.48218  1
 K  K12  1  0.75519  0.27301  0.27301  1
 O  O1  1  0.74012  0.52758  0.52758  1
 O  O2  1  -0.00000  0.47242  0.21254  1
 O  O3  1  0.78746  0.25988  0.78746  1
 O  O4  1  0.25988  0.78746  0.78746  1
 O  O5  1  -0.00000  0.21254  0.47242  1
 O  O6  1  0.52758  0.52758  0.74012  1
 O  O7  1  0.47242  0.21254  -0.00000  1
 O  O8  1  0.47242  -0.00000  0.21254  1
 O  O9  1  0.21254  -0.00000  0.47242  1
 O  O10  1  0.52758  0.74012  0.52758  1
 O  O11  1  0.21254  0.47242  -0.00000  1
 O  O12  1  0.78746  0.78746  0.25988  1
