CIF file written using JARVIS-Tools package.
data_CdI2
_symmetry_space_group_name_H-M  'P3m1'
_cell_length_a       4.28734
_cell_length_b       4.28733
_cell_length_c       75.6395
_cell_angle_alpha    90
_cell_angle_beta     90
_cell_angle_gamma    120

_symmetry_Int_Tables_number  156
_chemical_formula_structural  CdI2
_chemical_formula_sum  CdI22
_cell_volume  1204.0785292583669
_cell_formula_units_Z  11
loop_
  _symmetry_equiv_pos_site_id
 _symmetry_equiv_pos_as_xyz
 1  'x, y, z'
loop_
 _atom_site_type_symbol
 _atom_site_label
 _atom_site_symmetry_multiplicity
 _atom_site_fract_x
 _atom_site_fract_y
 _atom_site_fract_z
 _atom_site_fract_occupancy
 Cd  Cd1  1  0.66667  0.33333  0.20454  1
 Cd  Cd2  1  0.66667  0.33333  0.93181  1
 Cd  Cd3  1  0.66667  0.33333  0.02273  1
 Cd  Cd4  1  0.00000  0.00000  0.84090  1
 Cd  Cd5  1  0.66667  0.33333  0.38639  1
 Cd  Cd6  1  0.00000  0.00000  0.56817  1
 Cd  Cd7  1  0.66667  0.33333  0.11364  1
 Cd  Cd8  1  0.66667  0.33333  0.74997  1
 Cd  Cd9  1  0.66667  0.33333  0.47726  1
 Cd  Cd10  1  0.66667  0.33333  0.29547  1
 Cd  Cd11  1  0.66667  0.33333  0.65908  1
 I  I1  1  0.00000  0.00000  0.72706  1
 I  I2  1  0.00000  0.00000  0.36347  1
 I  I3  1  0.33333  0.66667  0.59110  1
 I  I4  1  0.00000  0.00000  0.45435  1
 I  I5  1  0.33333  0.66667  0.40931  1
 I  I6  1  0.00000  0.00000  0.18162  1
 I  I7  1  0.33333  0.66667  0.13656  1
 I  I8  1  0.33333  0.66667  0.86383  1
 I  I9  1  0.33333  0.66667  0.95473  1
 I  I10  1  0.00000  0.00000  0.63617  1
 I  I11  1  0.33333  0.66667  0.31839  1
 I  I12  1  0.00000  0.00000  0.90890  1
 I  I13  1  0.00000  0.00000  0.27255  1
 I  I14  1  0.00000  0.00000  0.99982  1
 I  I15  1  0.33333  0.66667  0.77290  1
 I  I16  1  0.66667  0.33333  0.54526  1
 I  I17  1  0.00000  0.00000  0.09072  1
 I  I18  1  0.33333  0.66667  0.68200  1
 I  I19  1  0.66667  0.33333  0.81800  1
 I  I20  1  0.33333  0.66667  0.22746  1
 I  I21  1  0.33333  0.66667  0.04565  1
 I  I22  1  0.33333  0.66667  0.50019  1
