CIF file written using JARVIS-Tools package.
data_MgFe2O5
_symmetry_space_group_name_H-M  'Cmcm'
_cell_length_a       5.02676
_cell_length_b       5.02676
_cell_length_c       9.56881
_cell_angle_alpha    90
_cell_angle_beta     90
_cell_angle_gamma    43.456

_symmetry_Int_Tables_number  63
_chemical_formula_structural  MgFe2O5
_chemical_formula_sum  Mg2Fe4O0
_cell_volume  166.30113957780634
_cell_formula_units_Z  2
loop_
  _symmetry_equiv_pos_site_id
 _symmetry_equiv_pos_as_xyz
 1  'x, y, z'
loop_
 _atom_site_type_symbol
 _atom_site_label
 _atom_site_symmetry_multiplicity
 _atom_site_fract_x
 _atom_site_fract_y
 _atom_site_fract_z
 _atom_site_fract_occupancy
 Fe  Fe1  1  0.13852  0.13852  0.55817  1
 Fe  Fe2  1  0.13852  0.13852  0.94183  1
 Fe  Fe3  1  0.86148  0.86148  0.05817  1
 Fe  Fe4  1  0.86148  0.86148  0.44183  1
 Mg  Mg1  1  0.20533  0.20533  0.25000  1
 Mg  Mg2  1  0.79467  0.79467  0.75000  1
 O  O1  1  0.04579  0.04579  0.11139  1
 O  O2  1  0.04579  0.04579  0.38861  1
 O  O3  1  0.31752  0.31752  0.05076  1
 O  O4  1  0.31752  0.31752  0.44924  1
 O  O5  1  0.78588  0.78588  0.25000  1
 O  O6  1  0.21412  0.21412  0.75000  1
 O  O7  1  0.68248  0.68248  0.55076  1
 O  O8  1  0.95421  0.95421  0.61139  1
 O  O9  1  0.68248  0.68248  0.94924  1
 O  O10  1  0.95421  0.95421  0.88861  1
