CIF file written using JARVIS-Tools package.
data_Pr3NbO7
_symmetry_space_group_name_H-M  'Cmcm'
_cell_length_a       6.72316
_cell_length_b       6.72315
_cell_length_c       7.77023
_cell_angle_alpha    90
_cell_angle_beta     90
_cell_angle_gamma    111.645

_symmetry_Int_Tables_number  63
_chemical_formula_structural  Pr3NbO7
_chemical_formula_sum  Pr6Nb2O4
_cell_volume  326.4550822549206
_cell_formula_units_Z  2
loop_
  _symmetry_equiv_pos_site_id
 _symmetry_equiv_pos_as_xyz
 1  'x, y, z'
loop_
 _atom_site_type_symbol
 _atom_site_label
 _atom_site_symmetry_multiplicity
 _atom_site_fract_x
 _atom_site_fract_y
 _atom_site_fract_z
 _atom_site_fract_occupancy
 Nb  Nb1  1  0.50000  0.50000  0.00000  1
 Nb  Nb2  1  0.50000  0.50000  0.50000  1
 O  O1  1  0.81413  0.56104  0.03734  1
 O  O2  1  0.42587  0.42587  0.25000  1
 O  O3  1  0.10535  0.84405  0.75000  1
 O  O4  1  0.89465  0.15595  0.25000  1
 O  O5  1  0.84405  0.10535  0.75000  1
 O  O6  1  0.15595  0.89465  0.25000  1
 O  O7  1  0.18587  0.43896  0.96266  1
 O  O8  1  0.81413  0.56104  0.46266  1
 O  O9  1  0.43896  0.18587  0.96266  1
 O  O10  1  0.18587  0.43896  0.53734  1
 O  O11  1  0.56104  0.81413  0.46266  1
 O  O12  1  0.56104  0.81413  0.03734  1
 O  O13  1  0.43896  0.18587  0.53734  1
 O  O14  1  0.57413  0.57413  0.75000  1
 Pr  Pr1  1  0.00000  0.00000  0.50000  1
 Pr  Pr2  1  0.92387  0.47436  0.75000  1
 Pr  Pr3  1  0.07613  0.52564  0.25000  1
 Pr  Pr4  1  0.47436  0.92387  0.75000  1
 Pr  Pr5  1  0.52564  0.07613  0.25000  1
 Pr  Pr6  1  0.00000  0.00000  0.00000  1
