CIF file written using JARVIS-Tools package.
data_LiVO2
_symmetry_space_group_name_H-M  'Imma'
_cell_length_a       5.78536
_cell_length_b       5.85918
_cell_length_c       5.85918
_cell_angle_alpha    64.9294
_cell_angle_beta     60.4159
_cell_angle_gamma    60.4159

_symmetry_Int_Tables_number  74
_chemical_formula_structural  LiVO2
_chemical_formula_sum  Li4V4O8
_cell_volume  145.88592940974092
_cell_formula_units_Z  4
loop_
  _symmetry_equiv_pos_site_id
 _symmetry_equiv_pos_as_xyz
 1  'x, y, z'
loop_
 _atom_site_type_symbol
 _atom_site_label
 _atom_site_symmetry_multiplicity
 _atom_site_fract_x
 _atom_site_fract_y
 _atom_site_fract_z
 _atom_site_fract_occupancy
 Li  Li1  1  0.19710  0.05290  0.05290  1
 Li  Li2  1  -0.00000  0.50000  -0.00000  1
 Li  Li3  1  0.00000  0.00000  0.50000  1
 Li  Li4  1  0.80290  0.94710  0.94710  1
 O  O1  1  0.26647  0.24492  0.24492  1
 O  O2  1  0.74370  0.24492  0.24492  1
 O  O3  1  0.25012  0.28158  0.71818  1
 O  O4  1  0.25012  0.71818  0.28158  1
 O  O5  1  0.74988  0.71842  0.28182  1
 O  O6  1  0.74988  0.28182  0.71842  1
 O  O7  1  0.25630  0.75508  0.75508  1
 O  O8  1  0.73353  0.75508  0.75508  1
 V  V1  1  0.50000  0.50000  0.00000  1
 V  V2  1  0.50000  0.50000  0.50000  1
 V  V3  1  -0.00000  0.50000  0.50000  1
 V  V4  1  0.50000  0.00000  0.50000  1
