CIF file written using JARVIS-Tools package.
data_Na2CoS2
_symmetry_space_group_name_H-M  'Ibam'
_cell_length_a       5.52838
_cell_length_b       6.24837
_cell_length_c       7.05961
_cell_angle_alpha    116.266
_cell_angle_beta     113.051
_cell_angle_gamma    90

_symmetry_Int_Tables_number  72
_chemical_formula_structural  Na2CoS2
_chemical_formula_sum  Na4Co2S4
_cell_volume  196.7358377097858
_cell_formula_units_Z  2
loop_
  _symmetry_equiv_pos_site_id
 _symmetry_equiv_pos_as_xyz
 1  'x, y, z'
loop_
 _atom_site_type_symbol
 _atom_site_label
 _atom_site_symmetry_multiplicity
 _atom_site_fract_x
 _atom_site_fract_y
 _atom_site_fract_z
 _atom_site_fract_occupancy
 Co  Co1  1  0.25000  0.00000  0.00000  1
 Co  Co2  1  0.75000  0.00000  0.00000  1
 Na  Na1  1  0.14448  0.48299  0.28895  1
 Na  Na2  1  0.85552  0.51701  0.71105  1
 Na  Na3  1  0.35552  0.19404  0.71105  1
 Na  Na4  1  0.64448  0.80596  0.28895  1
 S  S1  1  0.61125  0.32144  0.22251  1
 S  S2  1  0.38875  0.67856  0.77749  1
 S  S3  1  0.88875  0.09893  0.77749  1
 S  S4  1  0.11125  0.90107  0.22251  1
