CIF file written using JARVIS-Tools package.
data_NaBS2
_symmetry_space_group_name_H-M  'R-3c'
_cell_length_a       9.05319
_cell_length_b       9.05319
_cell_length_c       9.05319
_cell_angle_alpha    113.008
_cell_angle_beta     113.008
_cell_angle_gamma    113.008

_symmetry_Int_Tables_number  167
_chemical_formula_structural  NaBS2
_chemical_formula_sum  Na6B6S2
_cell_volume  482.1537891622163
_cell_formula_units_Z  6
loop_
  _symmetry_equiv_pos_site_id
 _symmetry_equiv_pos_as_xyz
 1  'x, y, z'
loop_
 _atom_site_type_symbol
 _atom_site_label
 _atom_site_symmetry_multiplicity
 _atom_site_fract_x
 _atom_site_fract_y
 _atom_site_fract_z
 _atom_site_fract_occupancy
 B  B1  1  0.36817  0.13183  0.25000  1
 B  B2  1  0.25000  0.36817  0.13183  1
 B  B3  1  0.13183  0.25000  0.36817  1
 B  B4  1  0.63183  0.86817  0.75000  1
 B  B5  1  0.75000  0.63183  0.86817  1
 B  B6  1  0.86817  0.75000  0.63183  1
 Na  Na1  1  0.71132  0.78868  0.25000  1
 Na  Na2  1  0.28868  0.21132  0.75000  1
 Na  Na3  1  0.78868  0.25000  0.71132  1
 Na  Na4  1  0.25000  0.71132  0.78868  1
 Na  Na5  1  0.21132  0.75000  0.28868  1
 Na  Na6  1  0.75000  0.28868  0.21132  1
 S  S1  1  0.12633  0.37367  0.25000  1
 S  S2  1  0.62633  0.75000  0.87367  1
 S  S3  1  0.25000  0.48549  0.01451  1
 S  S4  1  0.01451  0.25000  0.48549  1
 S  S5  1  0.51451  0.98549  0.75000  1
 S  S6  1  0.75000  0.87367  0.62633  1
 S  S7  1  0.87367  0.62633  0.75000  1
 S  S8  1  0.37367  0.25000  0.12633  1
 S  S9  1  0.25000  0.12633  0.37367  1
 S  S10  1  0.75000  0.51451  0.98549  1
 S  S11  1  0.98549  0.75000  0.51451  1
 S  S12  1  0.48549  0.01451  0.25000  1
