CIF file written using JARVIS-Tools package.
data_TmHO2
_symmetry_space_group_name_H-M  'P2_1/c'
_cell_length_a       5.87873
_cell_length_b       5.4051
_cell_length_c       5.87155
_cell_angle_alpha    90
_cell_angle_beta     108.555
_cell_angle_gamma    90

_symmetry_Int_Tables_number  14
_chemical_formula_structural  TmHO2
_chemical_formula_sum  Tm4H4O8
_cell_volume  176.87116515803194
_cell_formula_units_Z  4
loop_
  _symmetry_equiv_pos_site_id
 _symmetry_equiv_pos_as_xyz
 1  'x, y, z'
loop_
 _atom_site_type_symbol
 _atom_site_label
 _atom_site_symmetry_multiplicity
 _atom_site_fract_x
 _atom_site_fract_y
 _atom_site_fract_z
 _atom_site_fract_occupancy
 H  H1  1  0.28162  0.97272  0.73466  1
 H  H2  1  0.71838  0.47272  0.76534  1
 H  H3  1  0.28162  0.52728  0.23466  1
 H  H4  1  0.71838  0.02728  0.26534  1
 O  O1  1  0.13258  0.13920  0.87509  1
 O  O2  1  0.13258  0.36080  0.37509  1
 O  O3  1  0.36798  0.86618  0.64439  1
 O  O4  1  0.63202  0.36618  0.85561  1
 O  O5  1  0.36798  0.63382  0.14439  1
 O  O6  1  0.63202  0.13382  0.35561  1
 O  O7  1  0.86742  0.63920  0.62491  1
 O  O8  1  0.86742  0.86080  0.12491  1
 Tm  Tm1  1  0.23393  0.48649  0.74803  1
 Tm  Tm2  1  0.23393  0.01351  0.24803  1
 Tm  Tm3  1  0.76607  0.98649  0.75197  1
 Tm  Tm4  1  0.76607  0.51351  0.25197  1
