CIF file written using JARVIS-Tools package.
data_Tl3AsS3
_symmetry_space_group_name_H-M  'R3m'
_cell_length_a       6.0719
_cell_length_b       6.0719
_cell_length_c       6.0719
_cell_angle_alpha    105.87
_cell_angle_beta     105.87
_cell_angle_gamma    105.87

_symmetry_Int_Tables_number  160
_chemical_formula_structural  Tl3AsS3
_chemical_formula_sum  Tl3AsS3
_cell_volume  191.8872009873026
_cell_formula_units_Z  1
loop_
  _symmetry_equiv_pos_site_id
 _symmetry_equiv_pos_as_xyz
 1  'x, y, z'
loop_
 _atom_site_type_symbol
 _atom_site_label
 _atom_site_symmetry_multiplicity
 _atom_site_fract_x
 _atom_site_fract_y
 _atom_site_fract_z
 _atom_site_fract_occupancy
 As  As1  1  0.44694  0.44694  0.44694  1
 S  S1  1  0.05973  0.42779  0.42779  1
 S  S2  1  0.42779  0.42779  0.05973  1
 S  S3  1  0.42779  0.05973  0.42779  1
 Tl  Tl1  1  0.61211  0.00031  0.00031  1
 Tl  Tl2  1  0.00031  0.00031  0.61211  1
 Tl  Tl3  1  0.00031  0.61211  0.00031  1
