CIF file written using JARVIS-Tools package.
data_Ge3N4
_symmetry_space_group_name_H-M  'Fd-3m'
_cell_length_a       5.88466
_cell_length_b       5.88466
_cell_length_c       5.88466
_cell_angle_alpha    60
_cell_angle_beta     60
_cell_angle_gamma    60

_symmetry_Int_Tables_number  227
_chemical_formula_structural  Ge3N4
_chemical_formula_sum  Ge6N8
_cell_volume  144.09485533699262
_cell_formula_units_Z  2
loop_
  _symmetry_equiv_pos_site_id
 _symmetry_equiv_pos_as_xyz
 1  'x, y, z'
loop_
 _atom_site_type_symbol
 _atom_site_label
 _atom_site_symmetry_multiplicity
 _atom_site_fract_x
 _atom_site_fract_y
 _atom_site_fract_z
 _atom_site_fract_occupancy
 Ge  Ge1  1  0.50000  0.00000  0.50000  1
 Ge  Ge2  1  -0.00000  0.50000  0.50000  1
 Ge  Ge3  1  0.50000  0.50000  0.00000  1
 Ge  Ge4  1  0.50000  0.50000  0.50000  1
 Ge  Ge5  1  0.12500  0.12500  0.12500  1
 Ge  Ge6  1  0.87500  0.87500  0.87500  1
 N  N1  1  0.74182  0.74182  0.74182  1
 N  N2  1  0.25818  0.25818  0.72547  1
 N  N3  1  0.25818  0.72547  0.25818  1
 N  N4  1  0.72547  0.25818  0.25818  1
 N  N5  1  0.74182  0.27453  0.74182  1
 N  N6  1  0.27453  0.74182  0.74182  1
 N  N7  1  0.25818  0.25818  0.25818  1
 N  N8  1  0.74182  0.74182  0.27453  1
