CIF file written using JARVIS-Tools package.
data_MoWSe2S2
_symmetry_space_group_name_H-M  'P-3m1'
_cell_length_a       3.2589
_cell_length_b       3.25889
_cell_length_c       34.7642
_cell_angle_alpha    89.9985
_cell_angle_beta     90
_cell_angle_gamma    120

_symmetry_Int_Tables_number  164
_chemical_formula_structural  MoWSe2S2
_chemical_formula_sum  Mo2W2Se4S4
_cell_volume  319.74468975239245
_cell_formula_units_Z  2
loop_
  _symmetry_equiv_pos_site_id
 _symmetry_equiv_pos_as_xyz
 1  'x, y, z'
loop_
 _atom_site_type_symbol
 _atom_site_label
 _atom_site_symmetry_multiplicity
 _atom_site_fract_x
 _atom_site_fract_y
 _atom_site_fract_z
 _atom_site_fract_occupancy
 Mo  Mo1  1  0.33336  0.66672  0.09497  1
 Mo  Mo2  1  0.66664  0.33328  0.65649  1
 S  S1  1  0.33331  0.66661  0.70091  1
 S  S2  1  0.66669  0.33339  0.05055  1
 S  S3  1  0.66669  0.33339  0.13944  1
 S  S4  1  0.33331  0.66661  0.61202  1
 Se  Se1  1  0.33331  0.66662  0.32880  1
 Se  Se2  1  0.66669  0.33338  0.42265  1
 Se  Se3  1  0.66665  0.33331  0.52093  1
 Se  Se4  1  0.33335  0.66669  0.23053  1
 W  W1  1  0.33334  0.66668  0.47180  1
 W  W2  1  0.66666  0.33332  0.27966  1
