CIF file written using JARVIS-Tools package.
data_Ca2SnO4
_symmetry_space_group_name_H-M  'Pbam'
_cell_length_a       3.2991
_cell_length_b       5.78159
_cell_length_c       9.75938
_cell_angle_alpha    90
_cell_angle_beta     90
_cell_angle_gamma    90

_symmetry_Int_Tables_number  55
_chemical_formula_structural  Ca2SnO4
_chemical_formula_sum  Ca4Sn2O8
_cell_volume  186.15115670466827
_cell_formula_units_Z  2
loop_
  _symmetry_equiv_pos_site_id
 _symmetry_equiv_pos_as_xyz
 1  'x, y, z'
loop_
 _atom_site_type_symbol
 _atom_site_label
 _atom_site_symmetry_multiplicity
 _atom_site_fract_x
 _atom_site_fract_y
 _atom_site_fract_z
 _atom_site_fract_occupancy
 Ca  Ca1  1  0.50000  0.07080  0.31842  1
 Ca  Ca2  1  0.50000  0.92920  0.68158  1
 Ca  Ca3  1  0.50000  0.42920  0.81842  1
 Ca  Ca4  1  0.50000  0.57080  0.18158  1
 O  O1  1  0.00000  0.13627  0.80577  1
 O  O2  1  0.00000  0.86373  0.19423  1
 O  O3  1  0.00000  0.63627  0.69423  1
 O  O4  1  0.00000  0.36373  0.30577  1
 O  O5  1  0.50000  0.27029  0.54848  1
 O  O6  1  0.50000  0.72971  0.45152  1
 O  O7  1  0.50000  0.22971  0.04848  1
 O  O8  1  0.50000  0.77029  0.95152  1
 Sn  Sn1  1  0.00000  0.00000  0.00000  1
 Sn  Sn2  1  0.00000  0.50000  0.50000  1
