CIF file written using JARVIS-Tools package.
data_RbAsSe2
_symmetry_space_group_name_H-M  'C2/c'
_cell_length_a       9.43672
_cell_length_b       9.95901
_cell_length_c       12.6073
_cell_angle_alpha    113.264
_cell_angle_beta     100.46
_cell_angle_gamma    90

_symmetry_Int_Tables_number  15
_chemical_formula_structural  RbAsSe2
_chemical_formula_sum  Rb8As8Se6
_cell_volume  1067.0437062942526
_cell_formula_units_Z  8
loop_
  _symmetry_equiv_pos_site_id
 _symmetry_equiv_pos_as_xyz
 1  'x, y, z'
loop_
 _atom_site_type_symbol
 _atom_site_label
 _atom_site_symmetry_multiplicity
 _atom_site_fract_x
 _atom_site_fract_y
 _atom_site_fract_z
 _atom_site_fract_occupancy
 As  As1  1  0.95126  0.49282  0.69901  1
 As  As2  1  0.54874  0.79381  0.30099  1
 As  As3  1  0.45126  0.20619  0.69901  1
 As  As4  1  0.65155  0.39927  0.21370  1
 As  As5  1  0.84845  0.18558  0.78630  1
 As  As6  1  0.34845  0.60073  0.78630  1
 As  As7  1  0.15155  0.81442  0.21370  1
 As  As8  1  0.04874  0.50718  0.30099  1
 Rb  Rb1  1  0.33661  0.27909  0.40478  1
 Rb  Rb2  1  0.25000  0.46669  -0.00000  1
 Rb  Rb3  1  0.75000  0.53331  0.00000  1
 Rb  Rb4  1  0.25000  0.02299  -0.00000  1
 Rb  Rb5  1  0.75000  0.97701  0.00000  1
 Rb  Rb6  1  0.83661  0.12569  0.40478  1
 Rb  Rb7  1  0.66339  0.72091  0.59522  1
 Rb  Rb8  1  0.16339  0.87431  0.59522  1
 Se  Se1  1  0.43958  0.82307  0.79207  1
 Se  Se2  1  0.34741  0.91863  0.39353  1
 Se  Se3  1  0.06042  0.03100  0.20793  1
 Se  Se4  1  0.84741  0.47490  0.39353  1
 Se  Se5  1  0.65259  0.08137  0.60647  1
 Se  Se6  1  0.49157  0.77911  0.10803  1
 Se  Se7  1  0.00843  0.67109  0.89197  1
 Se  Se8  1  0.45780  0.55305  0.29649  1
 Se  Se9  1  0.99157  0.32891  0.10803  1
 Se  Se10  1  0.04220  0.25656  0.70351  1
 Se  Se11  1  0.54220  0.44695  0.70351  1
 Se  Se12  1  0.95780  0.74344  0.29649  1
 Se  Se13  1  0.93958  0.96900  0.79207  1
 Se  Se14  1  0.56042  0.17693  0.20793  1
 Se  Se15  1  0.50843  0.22089  0.89197  1
 Se  Se16  1  0.15259  0.52510  0.60647  1
