CIF file written using JARVIS-Tools package.
data_ZnC2S2N2
_symmetry_space_group_name_H-M  'P-1'
_cell_length_a       7.47856
_cell_length_b       7.92676
_cell_length_c       10.3131
_cell_angle_alpha    75.1864
_cell_angle_beta     70.151
_cell_angle_gamma    87.1928

_symmetry_Int_Tables_number  2
_chemical_formula_structural  ZnC2S2N2
_chemical_formula_sum  Zn4C8S8N8
_cell_volume  555.4532948051586
_cell_formula_units_Z  4
loop_
  _symmetry_equiv_pos_site_id
 _symmetry_equiv_pos_as_xyz
 1  'x, y, z'
loop_
 _atom_site_type_symbol
 _atom_site_label
 _atom_site_symmetry_multiplicity
 _atom_site_fract_x
 _atom_site_fract_y
 _atom_site_fract_z
 _atom_site_fract_occupancy
 C  C1  1  0.13091  0.29611  0.11217  1
 C  C2  1  0.56326  0.10348  0.11530  1
 C  C3  1  0.86909  0.70389  0.88783  1
 C  C4  1  0.01088  0.25580  0.60792  1
 C  C5  1  0.60626  0.42465  0.30588  1
 C  C6  1  0.98912  0.74420  0.39208  1
 C  C7  1  0.43674  0.89652  0.88470  1
 C  C8  1  0.39374  0.57535  0.69412  1
 N  N1  1  0.59075  0.20363  0.00427  1
 N  N2  1  0.88948  0.31851  0.68541  1
 N  N3  1  0.11052  0.68149  0.31459  1
 N  N4  1  0.48152  0.49601  0.76287  1
 N  N5  1  0.80151  0.57616  0.88309  1
 N  N6  1  0.51848  0.50399  0.23713  1
 N  N7  1  0.19849  0.42384  0.11691  1
 N  N8  1  0.40925  0.79637  0.99573  1
 S  S1  1  0.52366  0.96054  0.26901  1
 S  S2  1  0.72605  0.31978  0.40598  1
 S  S3  1  0.27395  0.68022  0.59402  1
 S  S4  1  0.82330  0.83163  0.50291  1
 S  S5  1  0.95685  0.88227  0.89916  1
 S  S6  1  0.47634  0.03946  0.73099  1
 S  S7  1  0.17670  0.16837  0.49709  1
 S  S8  1  0.04315  0.11773  0.10084  1
 Zn  Zn1  1  0.31436  0.60394  0.16654  1
 Zn  Zn2  1  0.21844  0.93462  0.68110  1
 Zn  Zn3  1  0.78156  0.06538  0.31890  1
 Zn  Zn4  1  0.68564  0.39606  0.83346  1
