CIF file written using JARVIS-Tools package.
data_CaH12Br2O6
_symmetry_space_group_name_H-M  'P321'
_cell_length_a       8.09918
_cell_length_b       8.09918
_cell_length_c       3.9422
_cell_angle_alpha    90
_cell_angle_beta     90
_cell_angle_gamma    120

_symmetry_Int_Tables_number  150
_chemical_formula_structural  CaH12Br2O6
_chemical_formula_sum  CaH2Br2O6
_cell_volume  223.95035741547986
_cell_formula_units_Z  1
loop_
  _symmetry_equiv_pos_site_id
 _symmetry_equiv_pos_as_xyz
 1  'x, y, z'
loop_
 _atom_site_type_symbol
 _atom_site_label
 _atom_site_symmetry_multiplicity
 _atom_site_fract_x
 _atom_site_fract_y
 _atom_site_fract_z
 _atom_site_fract_occupancy
 Br  Br1  1  0.33333  0.66667  0.43713  1
 Br  Br2  1  0.66667  0.33333  0.56287  1
 Ca  Ca1  1  0.00000  0.00000  0.00000  1
 H  H1  1  0.32713  0.90239  0.10113  1
 H  H2  1  0.67287  0.57525  0.89887  1
 H  H3  1  0.42475  0.09761  0.89887  1
 H  H4  1  0.09761  0.42475  0.10113  1
 H  H5  1  0.90239  0.32713  0.89887  1
 H  H6  1  0.66393  0.88900  0.52890  1
 H  H7  1  0.33607  0.22507  0.47110  1
 H  H8  1  0.88900  0.66393  0.47110  1
 H  H9  1  0.77493  0.11100  0.47110  1
 H  H10  1  0.22507  0.33607  0.52890  1
 H  H11  1  0.11100  0.77493  0.52890  1
 H  H12  1  0.57525  0.67287  0.10113  1
 O  O1  1  0.00000  0.79354  0.50000  1
 O  O2  1  0.20646  0.20646  0.50000  1
 O  O3  1  -0.00000  0.30300  0.00000  1
 O  O4  1  0.69700  0.69700  0.00000  1
 O  O5  1  0.30300  -0.00000  0.00000  1
 O  O6  1  0.79354  0.00000  0.50000  1
