CIF file written using JARVIS-Tools package.
data_Pb2ClOF
_symmetry_space_group_name_H-M  'Cmme'
_cell_length_a       5.7829
_cell_length_b       5.79671
_cell_length_c       6.93395
_cell_angle_alpha    90
_cell_angle_beta     114.645
_cell_angle_gamma    90

_symmetry_Int_Tables_number  67
_chemical_formula_structural  Pb2ClOF
_chemical_formula_sum  Pb4Cl2O2F2
_cell_volume  211.26487751560487
_cell_formula_units_Z  2
loop_
  _symmetry_equiv_pos_site_id
 _symmetry_equiv_pos_as_xyz
 1  'x, y, z'
loop_
 _atom_site_type_symbol
 _atom_site_label
 _atom_site_symmetry_multiplicity
 _atom_site_fract_x
 _atom_site_fract_y
 _atom_site_fract_z
 _atom_site_fract_occupancy
 Cl  Cl1  1  0.75000  0.77953  0.00000  1
 Cl  Cl2  1  0.25000  0.22047  -0.00000  1
 F  F1  1  0.25000  0.50000  0.50000  1
 F  F2  1  0.75000  0.50000  0.50000  1
 O  O1  1  0.75000  0.00000  0.50000  1
 O  O2  1  0.25000  0.00000  0.50000  1
 Pb  Pb1  1  0.89589  0.22120  0.29177  1
 Pb  Pb2  1  0.10411  0.77880  0.70823  1
 Pb  Pb3  1  0.60411  0.22120  0.70823  1
 Pb  Pb4  1  0.39589  0.77880  0.29177  1
