CIF file written using JARVIS-Tools package.
data_Li2TiPCO7
_symmetry_space_group_name_H-M  'P2_1/m'
_cell_length_a       4.95828
_cell_length_b       6.39855
_cell_length_c       8.58382
_cell_angle_alpha    90
_cell_angle_beta     93.8565
_cell_angle_gamma    90

_symmetry_Int_Tables_number  11
_chemical_formula_structural  Li2TiPCO7
_chemical_formula_sum  Li4Ti2P2C2O4
_cell_volume  271.71160639874495
_cell_formula_units_Z  2
loop_
  _symmetry_equiv_pos_site_id
 _symmetry_equiv_pos_as_xyz
 1  'x, y, z'
loop_
 _atom_site_type_symbol
 _atom_site_label
 _atom_site_symmetry_multiplicity
 _atom_site_fract_x
 _atom_site_fract_y
 _atom_site_fract_z
 _atom_site_fract_occupancy
 C  C1  1  0.72879  0.75000  0.94465  1
 C  C2  1  0.27121  0.25000  0.05535  1
 Li  Li1  1  0.77183  0.00712  0.21105  1
 Li  Li2  1  0.22817  0.99288  0.78895  1
 Li  Li3  1  0.22817  0.50712  0.78895  1
 Li  Li4  1  0.77183  0.49288  0.21105  1
 O  O1  1  0.52320  0.75000  0.83813  1
 O  O2  1  0.59514  0.75000  0.43372  1
 O  O3  1  0.47680  0.25000  0.16187  1
 O  O4  1  0.17569  0.94346  0.32327  1
 O  O5  1  0.17569  0.55654  0.32327  1
 O  O6  1  0.96648  0.75000  0.88622  1
 O  O7  1  0.82536  0.25000  0.41862  1
 O  O8  1  0.82431  0.44346  0.67673  1
 O  O9  1  0.69738  0.75000  0.08956  1
 O  O10  1  0.40486  0.25000  0.56628  1
 O  O11  1  0.17464  0.75000  0.58138  1
 O  O12  1  0.30262  0.25000  0.91044  1
 O  O13  1  0.82431  0.05654  0.67673  1
 O  O14  1  0.03352  0.25000  0.11378  1
 P  P1  1  0.28124  0.75000  0.41553  1
 P  P2  1  0.71876  0.25000  0.58447  1
 Ti  Ti1  1  0.21105  0.25000  0.34589  1
 Ti  Ti2  1  0.78895  0.75000  0.65411  1
