CIF file written using JARVIS-Tools package.
data_Yb3Ti
_symmetry_space_group_name_H-M  'I4/mmm'
_cell_length_a       6.03326
_cell_length_b       6.03326
_cell_length_c       6.03326
_cell_angle_alpha    131.459
_cell_angle_beta     131.459
_cell_angle_gamma    71.0841

_symmetry_Int_Tables_number  139
_chemical_formula_structural  Yb3Ti
_chemical_formula_sum  Yb3Ti
_cell_volume  120.76668821921602
_cell_formula_units_Z  1
loop_
  _symmetry_equiv_pos_site_id
 _symmetry_equiv_pos_as_xyz
 1  'x, y, z'
loop_
 _atom_site_type_symbol
 _atom_site_label
 _atom_site_symmetry_multiplicity
 _atom_site_fract_x
 _atom_site_fract_y
 _atom_site_fract_z
 _atom_site_fract_occupancy
 Ti  Ti1  1  0.00000  0.00000  0.00000  1
 Yb  Yb1  1  0.75000  0.25000  0.50000  1
 Yb  Yb2  1  0.25000  0.75000  0.50000  1
 Yb  Yb3  1  0.50000  0.50000  0.00000  1
