CIF file written using JARVIS-Tools package.
data_Li2MnO3
_symmetry_space_group_name_H-M  'C2/m'
_cell_length_a       4.93356
_cell_length_b       4.93355
_cell_length_c       5.00828
_cell_angle_alpha    99.5991
_cell_angle_beta     99.599
_cell_angle_gamma    119.927

_symmetry_Int_Tables_number  12
_chemical_formula_structural  Li2MnO3
_chemical_formula_sum  Li4Mn2O6
_cell_volume  99.6124606246477
_cell_formula_units_Z  2
loop_
  _symmetry_equiv_pos_site_id
 _symmetry_equiv_pos_as_xyz
 1  'x, y, z'
loop_
 _atom_site_type_symbol
 _atom_site_label
 _atom_site_symmetry_multiplicity
 _atom_site_fract_x
 _atom_site_fract_y
 _atom_site_fract_z
 _atom_site_fract_occupancy
 Li  Li1  1  0.33881  0.66119  0.50000  1
 Li  Li2  1  0.66119  0.33881  0.50000  1
 Li  Li3  1  0.50000  0.50000  0.00000  1
 Li  Li4  1  0.00000  -0.00000  0.50000  1
 Mn  Mn1  1  0.16714  0.83286  -0.00000  1
 Mn  Mn2  1  0.83286  0.16714  0.00000  1
 O  O1  1  0.06845  0.42426  0.77472  1
 O  O2  1  0.57574  0.93155  0.22528  1
 O  O3  1  0.77919  0.77919  0.77135  1
 O  O4  1  0.22081  0.22081  0.22865  1
 O  O5  1  0.42426  0.06845  0.77472  1
 O  O6  1  0.93155  0.57574  0.22528  1
