CIF file written using JARVIS-Tools package.
data_Li16Ta2N8O
_symmetry_space_group_name_H-M  'R-3'
_cell_length_a       9.10565
_cell_length_b       9.10565
_cell_length_c       9.10566
_cell_angle_alpha    38.1336
_cell_angle_beta     38.1336
_cell_angle_gamma    38.1336

_symmetry_Int_Tables_number  148
_chemical_formula_structural  Li16Ta2N8O
_chemical_formula_sum  Li6Ta2N8O
_cell_volume  258.47376320090416
_cell_formula_units_Z  1
loop_
  _symmetry_equiv_pos_site_id
 _symmetry_equiv_pos_as_xyz
 1  'x, y, z'
loop_
 _atom_site_type_symbol
 _atom_site_label
 _atom_site_symmetry_multiplicity
 _atom_site_fract_x
 _atom_site_fract_y
 _atom_site_fract_z
 _atom_site_fract_occupancy
 Li  Li1  1  0.58250  0.58250  0.58250  1
 Li  Li2  1  0.41750  0.41750  0.41750  1
 Li  Li3  1  0.92232  0.92232  0.92232  1
 Li  Li4  1  0.07768  0.07768  0.07768  1
 Li  Li5  1  0.67031  0.31737  0.94113  1
 Li  Li6  1  0.31737  0.94113  0.67031  1
 Li  Li7  1  0.94113  0.67031  0.31737  1
 Li  Li8  1  0.41857  0.17460  0.83272  1
 Li  Li9  1  0.32969  0.68263  0.05887  1
 Li  Li10  1  0.05887  0.32969  0.68263  1
 Li  Li11  1  0.58143  0.82540  0.16728  1
 Li  Li12  1  0.83272  0.41857  0.17460  1
 Li  Li13  1  0.17460  0.83272  0.41857  1
 Li  Li14  1  0.16728  0.58143  0.82540  1
 Li  Li15  1  0.82540  0.16728  0.58143  1
 Li  Li16  1  0.68263  0.05887  0.32969  1
 N  N1  1  0.67292  0.67292  0.67292  1
 N  N2  1  0.46253  0.77495  0.08917  1
 N  N3  1  0.32708  0.32708  0.32708  1
 N  N4  1  0.77495  0.08917  0.46253  1
 N  N5  1  0.08917  0.46253  0.77495  1
 N  N6  1  0.91083  0.53747  0.22505  1
 N  N7  1  0.22505  0.91083  0.53747  1
 N  N8  1  0.53747  0.22505  0.91083  1
 O  O1  1  0.00000  0.00000  0.00000  1
 Ta  Ta1  1  0.24942  0.24942  0.24942  1
 Ta  Ta2  1  0.75058  0.75058  0.75058  1
