CIF file written using JARVIS-Tools package.
data_LiAlSe2
_symmetry_space_group_name_H-M  'Pna2_1'
_cell_length_a       6.57386
_cell_length_b       6.87157
_cell_length_c       8.24273
_cell_angle_alpha    90
_cell_angle_beta     90
_cell_angle_gamma    90

_symmetry_Int_Tables_number  33
_chemical_formula_structural  LiAlSe2
_chemical_formula_sum  Li4Al4Se8
_cell_volume  372.3466009758963
_cell_formula_units_Z  4
loop_
  _symmetry_equiv_pos_site_id
 _symmetry_equiv_pos_as_xyz
 1  'x, y, z'
loop_
 _atom_site_type_symbol
 _atom_site_label
 _atom_site_symmetry_multiplicity
 _atom_site_fract_x
 _atom_site_fract_y
 _atom_site_fract_z
 _atom_site_fract_occupancy
 Al  Al1  1  0.99959  0.57480  0.37408  1
 Al  Al2  1  0.49959  0.42520  0.62592  1
 Al  Al3  1  0.49959  0.92520  0.87408  1
 Al  Al4  1  0.99959  0.07480  0.12592  1
 Li  Li1  1  0.00229  0.58678  0.87769  1
 Li  Li2  1  0.50229  0.41322  0.12231  1
 Li  Li3  1  0.50229  0.91322  0.37769  1
 Li  Li4  1  0.00229  0.08678  0.62231  1
 Se  Se1  1  0.11587  0.90799  0.36598  1
 Se  Se2  1  0.61587  0.09201  0.63402  1
 Se  Se3  1  0.61587  0.59201  0.86598  1
 Se  Se4  1  0.11587  0.40799  0.13402  1
 Se  Se5  1  0.63204  0.56723  0.38153  1
 Se  Se6  1  0.13204  0.43277  0.61847  1
 Se  Se7  1  0.13204  0.93277  0.88153  1
 Se  Se8  1  0.63204  0.06723  0.11847  1
