CIF file written using JARVIS-Tools package.
data_Li4MnO2F2
_symmetry_space_group_name_H-M  'P2_1/c'
_cell_length_a       5.97462
_cell_length_b       4.93206
_cell_length_c       6.11463
_cell_angle_alpha    90
_cell_angle_beta     101.143
_cell_angle_gamma    90

_symmetry_Int_Tables_number  14
_chemical_formula_structural  Li4MnO2F2
_chemical_formula_sum  Li8Mn2O4F4
_cell_volume  176.78433004304975
_cell_formula_units_Z  2
loop_
  _symmetry_equiv_pos_site_id
 _symmetry_equiv_pos_as_xyz
 1  'x, y, z'
loop_
 _atom_site_type_symbol
 _atom_site_label
 _atom_site_symmetry_multiplicity
 _atom_site_fract_x
 _atom_site_fract_y
 _atom_site_fract_z
 _atom_site_fract_occupancy
 F  F1  1  0.38603  0.75864  0.04882  1
 F  F2  1  0.38603  0.74136  0.54882  1
 F  F3  1  0.61397  0.24136  0.95118  1
 F  F4  1  0.61397  0.25864  0.45118  1
 Li  Li1  1  0.83333  0.52400  0.07935  1
 Li  Li2  1  0.60811  0.00781  0.20453  1
 Li  Li3  1  0.16667  0.47600  0.92065  1
 Li  Li4  1  0.16667  0.02400  0.42065  1
 Li  Li5  1  0.83333  0.97600  0.57935  1
 Li  Li6  1  0.60811  0.49219  0.70453  1
 Li  Li7  1  0.39189  0.99219  0.79547  1
 Li  Li8  1  0.39189  0.50781  0.29547  1
 Mn  Mn1  1  0.00000  0.00000  0.00000  1
 Mn  Mn2  1  0.00000  0.50000  0.50000  1
 O  O1  1  0.88037  0.69139  0.80386  1
 O  O2  1  0.11963  0.19139  0.69614  1
 O  O3  1  0.88037  0.80861  0.30386  1
 O  O4  1  0.11963  0.30861  0.19614  1
