CIF file written using JARVIS-Tools package.
data_Na6MnS4
_symmetry_space_group_name_H-M  'P6_3mc'
_cell_length_a       8.94818
_cell_length_b       8.94818
_cell_length_c       6.91768
_cell_angle_alpha    90
_cell_angle_beta     90
_cell_angle_gamma    120

_symmetry_Int_Tables_number  186
_chemical_formula_structural  Na6MnS4
_chemical_formula_sum  Na2Mn2S8
_cell_volume  479.6896683006302
_cell_formula_units_Z  2
loop_
  _symmetry_equiv_pos_site_id
 _symmetry_equiv_pos_as_xyz
 1  'x, y, z'
loop_
 _atom_site_type_symbol
 _atom_site_label
 _atom_site_symmetry_multiplicity
 _atom_site_fract_x
 _atom_site_fract_y
 _atom_site_fract_z
 _atom_site_fract_occupancy
 Mn  Mn1  1  0.33333  0.66667  0.25092  1
 Mn  Mn2  1  0.66667  0.33333  0.75092  1
 Na  Na1  1  0.53167  0.06334  0.36747  1
 Na  Na2  1  0.14577  0.29153  0.53692  1
 Na  Na3  1  0.14577  0.85423  0.53692  1
 Na  Na4  1  0.29153  0.14577  0.03692  1
 Na  Na5  1  0.85423  0.70847  0.03692  1
 Na  Na6  1  0.46833  0.53167  0.86747  1
 Na  Na7  1  0.70847  0.85423  0.53692  1
 Na  Na8  1  0.85423  0.14577  0.03692  1
 Na  Na9  1  0.53167  0.46833  0.36747  1
 Na  Na10  1  0.93666  0.46833  0.36747  1
 Na  Na11  1  0.06334  0.53167  0.86747  1
 Na  Na12  1  0.46833  0.93666  0.86747  1
 S  S1  1  0.81354  0.18646  0.64194  1
 S  S2  1  0.81354  0.62707  0.64194  1
 S  S3  1  0.18646  0.37293  0.14194  1
 S  S4  1  0.62707  0.81354  0.14194  1
 S  S5  1  0.33333  0.66667  0.59760  1
 S  S6  1  0.66667  0.33333  0.09760  1
 S  S7  1  0.18646  0.81354  0.14194  1
 S  S8  1  0.37293  0.18646  0.64194  1
