CIF file written using JARVIS-Tools package.
data_Li4NbFe3O8
_symmetry_space_group_name_H-M  'P1'
_cell_length_a       5.00612
_cell_length_b       5.42299
_cell_length_c       6.60623
_cell_angle_alpha    87.9361
_cell_angle_beta     87.4982
_cell_angle_gamma    88.9929

_symmetry_Int_Tables_number  1
_chemical_formula_structural  Li4NbFe3O8
_chemical_formula_sum  Li4NbFe3O8
_cell_volume  179.03659813746577
_cell_formula_units_Z  1
loop_
  _symmetry_equiv_pos_site_id
 _symmetry_equiv_pos_as_xyz
 1  'x, y, z'
loop_
 _atom_site_type_symbol
 _atom_site_label
 _atom_site_symmetry_multiplicity
 _atom_site_fract_x
 _atom_site_fract_y
 _atom_site_fract_z
 _atom_site_fract_occupancy
 Fe  Fe1  1  0.03007  0.11743  0.81335  1
 Fe  Fe2  1  0.46040  0.42888  0.42502  1
 Fe  Fe3  1  0.04220  0.52112  0.62609  1
 Li  Li1  1  -0.00870  0.07767  0.38416  1
 Li  Li2  1  0.51419  0.43441  0.87623  1
 Li  Li3  1  -0.01049  0.58000  0.12515  1
 Li  Li4  1  0.51808  0.90029  0.62510  1
 Nb  Nb1  1  0.48900  0.92969  0.12658  1
 O  O1  1  0.62720  0.07799  0.87891  1
 O  O2  1  0.59787  0.08595  0.36311  1
 O  O3  1  0.12358  0.43662  0.89143  1
 O  O4  1  0.09968  0.42273  0.36206  1
 O  O5  1  0.65543  0.56435  0.62247  1
 O  O6  1  0.59554  0.59531  0.14059  1
 O  O7  1  0.12592  0.89057  0.62186  1
 O  O8  1  0.11365  0.93697  0.11787  1
