CIF file written using JARVIS-Tools package.
data_KSn2I5
_symmetry_space_group_name_H-M  'I4/mcm'
_cell_length_a       8.88264
_cell_length_b       8.88265
_cell_length_c       9.92714
_cell_angle_alpha    116.576
_cell_angle_beta     116.576
_cell_angle_gamma    90

_symmetry_Int_Tables_number  140
_chemical_formula_structural  KSn2I5
_chemical_formula_sum  K2Sn4I0
_cell_volume  606.5531085888163
_cell_formula_units_Z  2
loop_
  _symmetry_equiv_pos_site_id
 _symmetry_equiv_pos_as_xyz
 1  'x, y, z'
loop_
 _atom_site_type_symbol
 _atom_site_label
 _atom_site_symmetry_multiplicity
 _atom_site_fract_x
 _atom_site_fract_y
 _atom_site_fract_z
 _atom_site_fract_occupancy
 I  I1  1  0.00000  0.00000  0.00000  1
 I  I2  1  0.50000  0.50000  -0.00000  1
 I  I3  1  0.51708  0.01708  0.71933  1
 I  I4  1  0.70225  0.51708  0.71933  1
 I  I5  1  0.01708  0.20225  0.71933  1
 I  I6  1  0.29775  0.48292  0.28067  1
 I  I7  1  0.98292  0.79775  0.28067  1
 I  I8  1  0.79775  0.29775  0.28067  1
 I  I9  1  0.48292  0.98292  0.28067  1
 I  I10  1  0.20225  0.70225  0.71933  1
 K  K1  1  0.25000  0.25000  0.50000  1
 K  K2  1  0.75000  0.75000  0.50000  1
 Sn  Sn1  1  0.17067  0.67067  0.00000  1
 Sn  Sn2  1  0.32933  0.17067  -0.00000  1
 Sn  Sn3  1  0.67067  0.82933  0.00000  1
 Sn  Sn4  1  0.82933  0.32933  -0.00000  1
