CIF file written using JARVIS-Tools package.
data_V2Si2O7
_symmetry_space_group_name_H-M  'C2/m'
_cell_length_a       5.22193
_cell_length_b       5.22193
_cell_length_c       4.66
_cell_angle_alpha    82.8033
_cell_angle_beta     97.1967
_cell_angle_gamma    74.3337

_symmetry_Int_Tables_number  12
_chemical_formula_structural  V2Si2O7
_chemical_formula_sum  V2Si2O7
_cell_volume  119.69132593418274
_cell_formula_units_Z  1
loop_
  _symmetry_equiv_pos_site_id
 _symmetry_equiv_pos_as_xyz
 1  'x, y, z'
loop_
 _atom_site_type_symbol
 _atom_site_label
 _atom_site_symmetry_multiplicity
 _atom_site_fract_x
 _atom_site_fract_y
 _atom_site_fract_z
 _atom_site_fract_occupancy
 O  O1  1  0.07545  0.59676  0.20797  1
 O  O2  1  0.40324  0.92455  0.20797  1
 O  O3  1  0.39972  0.60028  0.72849  1
 O  O4  1  -0.00000  0.00000  0.50000  1
 O  O5  1  0.60028  0.39972  0.27151  1
 O  O6  1  0.59676  0.07545  0.79203  1
 O  O7  1  0.92455  0.40324  0.79203  1
 Si  Si1  1  0.23041  0.76959  0.40563  1
 Si  Si2  1  0.76959  0.23041  0.59437  1
 V  V1  1  0.68733  0.68733  -0.00000  1
 V  V2  1  0.31267  0.31267  0.00000  1
