CIF file written using JARVIS-Tools package.
data_Co2SiO4
_symmetry_space_group_name_H-M  'Pnma'
_cell_length_a       4.86809
_cell_length_b       5.91513
_cell_length_c       10.1556
_cell_angle_alpha    90
_cell_angle_beta     90
_cell_angle_gamma    90

_symmetry_Int_Tables_number  62
_chemical_formula_structural  Co2SiO4
_chemical_formula_sum  Co8Si4O6
_cell_volume  292.43294839199825
_cell_formula_units_Z  4
loop_
  _symmetry_equiv_pos_site_id
 _symmetry_equiv_pos_as_xyz
 1  'x, y, z'
loop_
 _atom_site_type_symbol
 _atom_site_label
 _atom_site_symmetry_multiplicity
 _atom_site_fract_x
 _atom_site_fract_y
 _atom_site_fract_z
 _atom_site_fract_occupancy
 Co  Co1  1  0.50726  0.25000  0.23057  1
 Co  Co2  1  0.99274  0.25000  0.73057  1
 Co  Co3  1  0.49274  0.75000  0.76943  1
 Co  Co4  1  0.00726  0.75000  0.26943  1
 Co  Co5  1  0.50000  0.50000  0.50000  1
 Co  Co6  1  0.00000  0.50000  0.00000  1
 Co  Co7  1  0.50000  0.00000  0.50000  1
 Co  Co8  1  0.00000  0.00000  0.00000  1
 O  O1  1  0.71632  0.52863  0.16496  1
 O  O2  1  0.28368  0.47137  0.83504  1
 O  O3  1  0.78368  0.52863  0.66496  1
 O  O4  1  0.21632  0.47137  0.33504  1
 O  O5  1  0.78368  0.97137  0.66496  1
 O  O6  1  0.26739  0.75000  0.59182  1
 O  O7  1  0.71632  0.97137  0.16496  1
 O  O8  1  0.28368  0.02863  0.83504  1
 O  O9  1  0.70894  0.75000  0.94384  1
 O  O10  1  0.23261  0.75000  0.09182  1
 O  O11  1  0.29106  0.25000  0.05616  1
 O  O12  1  0.79106  0.75000  0.44384  1
 O  O13  1  0.21632  0.02863  0.33504  1
 O  O14  1  0.73261  0.25000  0.40818  1
 O  O15  1  0.20894  0.25000  0.55616  1
 O  O16  1  0.76739  0.25000  0.90818  1
 Si  Si1  1  0.93063  0.75000  0.59391  1
 Si  Si2  1  0.43063  0.25000  0.90609  1
 Si  Si3  1  0.06937  0.25000  0.40609  1
 Si  Si4  1  0.56937  0.75000  0.09391  1
