CIF file written using JARVIS-Tools package.
data_CrAg2O4
_symmetry_space_group_name_H-M  'Pnma'
_cell_length_a       5.57575
_cell_length_b       6.93699
_cell_length_c       10.0375
_cell_angle_alpha    90
_cell_angle_beta     90
_cell_angle_gamma    90

_symmetry_Int_Tables_number  62
_chemical_formula_structural  CrAg2O4
_chemical_formula_sum  Cr4Ag8O6
_cell_volume  388.2383414921548
_cell_formula_units_Z  4
loop_
  _symmetry_equiv_pos_site_id
 _symmetry_equiv_pos_as_xyz
 1  'x, y, z'
loop_
 _atom_site_type_symbol
 _atom_site_label
 _atom_site_symmetry_multiplicity
 _atom_site_fract_x
 _atom_site_fract_y
 _atom_site_fract_z
 _atom_site_fract_occupancy
 Ag  Ag1  1  0.00000  0.50000  0.00000  1
 Ag  Ag2  1  0.00000  0.00000  0.00000  1
 Ag  Ag3  1  0.50000  0.50000  0.50000  1
 Ag  Ag4  1  0.50000  0.00000  0.50000  1
 Ag  Ag5  1  0.98926  0.75000  0.64090  1
 Ag  Ag6  1  0.48926  0.25000  0.85910  1
 Ag  Ag7  1  0.51074  0.75000  0.14090  1
 Ag  Ag8  1  0.01074  0.25000  0.35910  1
 Cr  Cr1  1  0.02886  0.75000  0.31780  1
 Cr  Cr2  1  0.97114  0.25000  0.68220  1
 Cr  Cr3  1  0.52886  0.25000  0.18220  1
 Cr  Cr4  1  0.47114  0.75000  0.81780  1
 O  O1  1  0.23462  0.25000  0.15079  1
 O  O2  1  0.08803  0.75000  0.15153  1
 O  O3  1  0.15435  0.94676  0.38616  1
 O  O4  1  0.91197  0.25000  0.84847  1
 O  O5  1  0.41197  0.75000  0.65153  1
 O  O6  1  0.73462  0.75000  0.34921  1
 O  O7  1  0.58803  0.25000  0.34847  1
 O  O8  1  0.34565  0.55324  0.88616  1
 O  O9  1  0.65435  0.44676  0.11384  1
 O  O10  1  0.84565  0.05324  0.61384  1
 O  O11  1  0.34565  0.94676  0.88616  1
 O  O12  1  0.84565  0.44676  0.61384  1
 O  O13  1  0.26538  0.25000  0.65079  1
 O  O14  1  0.15435  0.55324  0.38616  1
 O  O15  1  0.76538  0.75000  0.84921  1
 O  O16  1  0.65435  0.05324  0.11384  1
