CIF file written using JARVIS-Tools package.
data_Li3MnO3
_symmetry_space_group_name_H-M  'P4_2/mnm'
_cell_length_a       8.96115
_cell_length_b       8.96115
_cell_length_c       3.48102
_cell_angle_alpha    90
_cell_angle_beta     90
_cell_angle_gamma    90

_symmetry_Int_Tables_number  136
_chemical_formula_structural  Li3MnO3
_chemical_formula_sum  Li2Mn4O2
_cell_volume  279.53318896626166
_cell_formula_units_Z  4
loop_
  _symmetry_equiv_pos_site_id
 _symmetry_equiv_pos_as_xyz
 1  'x, y, z'
loop_
 _atom_site_type_symbol
 _atom_site_label
 _atom_site_symmetry_multiplicity
 _atom_site_fract_x
 _atom_site_fract_y
 _atom_site_fract_z
 _atom_site_fract_occupancy
 Li  Li1  1  0.35577  0.09470  0.50000  1
 Li  Li2  1  0.59470  0.14423  0.00000  1
 Li  Li3  1  0.17238  0.17238  0.00000  1
 Li  Li4  1  0.67238  0.32762  0.50000  1
 Li  Li5  1  0.09470  0.35577  0.50000  1
 Li  Li6  1  0.85577  0.40530  0.00000  1
 Li  Li7  1  0.14423  0.59470  0.00000  1
 Li  Li8  1  0.90530  0.64423  0.50000  1
 Li  Li9  1  0.32762  0.67238  0.50000  1
 Li  Li10  1  0.82762  0.82762  0.00000  1
 Li  Li11  1  0.40530  0.85577  0.00000  1
 Li  Li12  1  0.64423  0.90530  0.50000  1
 Mn  Mn1  1  0.88451  0.11549  0.50000  1
 Mn  Mn2  1  0.38451  0.38451  0.00000  1
 Mn  Mn3  1  0.61549  0.61549  0.00000  1
 Mn  Mn4  1  0.11549  0.88451  0.50000  1
 O  O1  1  0.10216  0.10216  0.50000  1
 O  O2  1  0.67819  0.11252  0.50000  1
 O  O3  1  0.38748  0.17819  0.00000  1
 O  O4  1  0.88748  0.32181  0.50000  1
 O  O5  1  0.17819  0.38748  0.00000  1
 O  O6  1  0.60216  0.39784  0.00000  1
 O  O7  1  0.39784  0.60216  0.00000  1
 O  O8  1  0.82181  0.61252  0.00000  1
 O  O9  1  0.11252  0.67819  0.50000  1
 O  O10  1  0.61252  0.82181  0.00000  1
 O  O11  1  0.32181  0.88748  0.50000  1
 O  O12  1  0.89784  0.89784  0.50000  1
