CIF file written using JARVIS-Tools package.
data_Na3Sr3GaAs4
_symmetry_space_group_name_H-M  'P6_3mc'
_cell_length_a       9.62244
_cell_length_b       9.62244
_cell_length_c       7.55005
_cell_angle_alpha    90
_cell_angle_beta     90
_cell_angle_gamma    120

_symmetry_Int_Tables_number  186
_chemical_formula_structural  Na3Sr3GaAs4
_chemical_formula_sum  Na6Sr6Ga2As8
_cell_volume  605.4119847642182
_cell_formula_units_Z  2
loop_
  _symmetry_equiv_pos_site_id
 _symmetry_equiv_pos_as_xyz
 1  'x, y, z'
loop_
 _atom_site_type_symbol
 _atom_site_label
 _atom_site_symmetry_multiplicity
 _atom_site_fract_x
 _atom_site_fract_y
 _atom_site_fract_z
 _atom_site_fract_occupancy
 As  As1  1  0.37585  0.18793  0.27786  1
 As  As2  1  0.62415  0.81207  0.77786  1
 As  As3  1  0.66667  0.33333  0.71958  1
 As  As4  1  0.81207  0.62415  0.27786  1
 As  As5  1  0.18793  0.37585  0.77786  1
 As  As6  1  0.81207  0.18793  0.27786  1
 As  As7  1  0.18793  0.81207  0.77786  1
 As  As8  1  0.33333  0.66667  0.21958  1
 Ga  Ga1  1  0.33333  0.66667  0.87298  1
 Ga  Ga2  1  0.66667  0.33333  0.37298  1
 Na  Na1  1  0.13537  0.86463  0.16891  1
 Na  Na2  1  0.13537  0.27073  0.16891  1
 Na  Na3  1  0.86463  0.13537  0.66891  1
 Na  Na4  1  0.72927  0.86463  0.16891  1
 Na  Na5  1  0.86463  0.72927  0.66891  1
 Na  Na6  1  0.27073  0.13537  0.66891  1
 Sr  Sr1  1  0.47829  0.95659  0.49941  1
 Sr  Sr2  1  0.52171  0.47829  0.99941  1
 Sr  Sr3  1  0.04341  0.52171  0.49941  1
 Sr  Sr4  1  0.47829  0.52171  0.49941  1
 Sr  Sr5  1  0.52171  0.04341  0.99941  1
 Sr  Sr6  1  0.95659  0.47829  0.99941  1
