CIF file written using JARVIS-Tools package.
data_TlCrS2
_symmetry_space_group_name_H-M  'R3m'
_cell_length_a       7.69507
_cell_length_b       7.69507
_cell_length_c       7.69507
_cell_angle_alpha    26.9838
_cell_angle_beta     26.9838
_cell_angle_gamma    26.9838

_symmetry_Int_Tables_number  160
_chemical_formula_structural  TlCrS2
_chemical_formula_sum  TlCrS2
_cell_volume  82.74210882770082
_cell_formula_units_Z  1
loop_
  _symmetry_equiv_pos_site_id
 _symmetry_equiv_pos_as_xyz
 1  'x, y, z'
loop_
 _atom_site_type_symbol
 _atom_site_label
 _atom_site_symmetry_multiplicity
 _atom_site_fract_x
 _atom_site_fract_y
 _atom_site_fract_z
 _atom_site_fract_occupancy
 Cr  Cr1  1  0.99978  0.99978  0.99978  1
 S  S1  1  0.60971  0.60971  0.60971  1
 S  S2  1  0.39090  0.39090  0.39090  1
 Tl  Tl1  1  0.16631  0.16631  0.16631  1
