CIF file written using JARVIS-Tools package.
data_KSmGeSe4
_symmetry_space_group_name_H-M  'P2_1'
_cell_length_a       6.8373
_cell_length_b       7.0382
_cell_length_c       8.8767
_cell_angle_alpha    90
_cell_angle_beta     108.035
_cell_angle_gamma    90

_symmetry_Int_Tables_number  4
_chemical_formula_structural  KSmGeSe4
_chemical_formula_sum  K2Sm2Ge2Se8
_cell_volume  406.1795228997367
_cell_formula_units_Z  2
loop_
  _symmetry_equiv_pos_site_id
 _symmetry_equiv_pos_as_xyz
 1  'x, y, z'
loop_
 _atom_site_type_symbol
 _atom_site_label
 _atom_site_symmetry_multiplicity
 _atom_site_fract_x
 _atom_site_fract_y
 _atom_site_fract_z
 _atom_site_fract_occupancy
 Ge  Ge1  1  0.71899  0.23709  0.31963  1
 Ge  Ge2  1  0.28101  0.73709  0.68037  1
 K  K1  1  0.75055  0.70723  0.06082  1
 K  K2  1  0.24945  0.20723  0.93918  1
 Se  Se1  1  0.53831  0.98016  0.73001  1
 Se  Se2  1  0.46169  0.48016  0.26999  1
 Se  Se3  1  0.49237  0.46035  0.71489  1
 Se  Se4  1  0.92132  0.24269  0.14848  1
 Se  Se5  1  0.07868  0.74269  0.85152  1
 Se  Se6  1  0.06690  0.80391  0.41762  1
 Se  Se7  1  0.93310  0.30391  0.58238  1
 Se  Se8  1  0.50763  0.96035  0.28511  1
 Sm  Sm1  1  0.26919  0.20445  0.44658  1
 Sm  Sm2  1  0.73081  0.70445  0.55342  1
