CIF file written using JARVIS-Tools package.
data_NbCrF6
_symmetry_space_group_name_H-M  'Fm-3m'
_cell_length_a       5.70337
_cell_length_b       5.70337
_cell_length_c       5.70329
_cell_angle_alpha    120
_cell_angle_beta     120.001
_cell_angle_gamma    89.9999

_symmetry_Int_Tables_number  225
_chemical_formula_structural  NbCrF6
_chemical_formula_sum  NbCrF6
_cell_volume  131.18027261811875
_cell_formula_units_Z  1
loop_
  _symmetry_equiv_pos_site_id
 _symmetry_equiv_pos_as_xyz
 1  'x, y, z'
loop_
 _atom_site_type_symbol
 _atom_site_label
 _atom_site_symmetry_multiplicity
 _atom_site_fract_x
 _atom_site_fract_y
 _atom_site_fract_z
 _atom_site_fract_occupancy
 Cr  Cr1  1  0.50000  0.50000  -0.00000  1
 F  F1  1  0.74687  0.74687  0.49374  1
 F  F2  1  0.25313  0.25313  0.50626  1
 F  F3  1  0.25309  0.25309  -0.00000  1
 F  F4  1  0.74691  0.25309  0.00000  1
 F  F5  1  0.25309  0.74691  -0.00000  1
 F  F6  1  0.74691  0.74691  0.00000  1
 Nb  Nb1  1  0.00000  0.00000  0.00000  1
