CIF file written using JARVIS-Tools package.
data_LiCrO2
_symmetry_space_group_name_H-M  'Fd-3m'
_cell_length_a       5.85952
_cell_length_b       5.85952
_cell_length_c       5.8594
_cell_angle_alpha    60.0006
_cell_angle_beta     60.0006
_cell_angle_gamma    59.9988

_symmetry_Int_Tables_number  227
_chemical_formula_structural  LiCrO2
_chemical_formula_sum  Li4Cr4O8
_cell_volume  142.2532361436429
_cell_formula_units_Z  4
loop_
  _symmetry_equiv_pos_site_id
 _symmetry_equiv_pos_as_xyz
 1  'x, y, z'
loop_
 _atom_site_type_symbol
 _atom_site_label
 _atom_site_symmetry_multiplicity
 _atom_site_fract_x
 _atom_site_fract_y
 _atom_site_fract_z
 _atom_site_fract_occupancy
 Cr  Cr1  1  0.00000  0.00000  0.00000  1
 Cr  Cr2  1  -0.00000  -0.00000  0.50000  1
 Cr  Cr3  1  0.00000  0.50000  -0.00000  1
 Cr  Cr4  1  0.50000  0.00000  0.00000  1
 Li  Li1  1  0.00000  0.50000  0.50000  1
 Li  Li2  1  0.50000  -0.00000  0.50000  1
 Li  Li3  1  0.50000  0.50000  0.00000  1
 Li  Li4  1  0.50000  0.50000  0.50000  1
 O  O1  1  0.24192  0.24192  0.24193  1
 O  O2  1  0.24193  0.77424  0.24192  1
 O  O3  1  0.24192  0.24192  0.77424  1
 O  O4  1  0.22576  0.75807  0.75808  1
 O  O5  1  0.77424  0.24193  0.24192  1
 O  O6  1  0.75808  0.75808  0.22576  1
 O  O7  1  0.75807  0.22576  0.75808  1
 O  O8  1  0.75808  0.75808  0.75807  1
