CIF file written using JARVIS-Tools package.
data_Na3MnSiCO7
_symmetry_space_group_name_H-M  'P2_1/m'
_cell_length_a       5.21324
_cell_length_b       6.41465
_cell_length_c       9.1455
_cell_angle_alpha    90
_cell_angle_beta     90.5251
_cell_angle_gamma    90

_symmetry_Int_Tables_number  11
_chemical_formula_structural  Na3MnSiCO7
_chemical_formula_sum  Na6Mn2Si2C2O4
_cell_volume  305.8230488372333
_cell_formula_units_Z  2
loop_
  _symmetry_equiv_pos_site_id
 _symmetry_equiv_pos_as_xyz
 1  'x, y, z'
loop_
 _atom_site_type_symbol
 _atom_site_label
 _atom_site_symmetry_multiplicity
 _atom_site_fract_x
 _atom_site_fract_y
 _atom_site_fract_z
 _atom_site_fract_occupancy
 C  C1  1  0.28273  0.25000  0.05426  1
 C  C2  1  0.71727  0.75000  0.94574  1
 Mn  Mn1  1  0.21622  0.25000  0.35472  1
 Mn  Mn2  1  0.78378  0.75000  0.64528  1
 Na  Na1  1  0.21983  0.75000  0.09636  1
 Na  Na2  1  0.74056  0.99811  0.26058  1
 Na  Na3  1  0.74056  0.50189  0.26058  1
 Na  Na4  1  0.25944  0.49811  0.73942  1
 Na  Na5  1  0.25944  0.00189  0.73942  1
 Na  Na6  1  0.78017  0.25000  0.90364  1
 O  O1  1  0.25062  0.54723  0.32054  1
 O  O2  1  0.25062  0.95277  0.32054  1
 O  O3  1  0.91354  0.75000  0.85622  1
 O  O4  1  0.08646  0.25000  0.14378  1
 O  O5  1  0.76497  0.75000  0.08461  1
 O  O6  1  0.51260  0.25000  0.10567  1
 O  O7  1  0.83919  0.25000  0.41915  1
 O  O8  1  0.48740  0.75000  0.89433  1
 O  O9  1  0.37067  0.25000  0.54206  1
 O  O10  1  0.74938  0.45277  0.67946  1
 O  O11  1  0.74938  0.04723  0.67946  1
 O  O12  1  0.62933  0.75000  0.45794  1
 O  O13  1  0.16081  0.75000  0.58085  1
 O  O14  1  0.23503  0.25000  0.91539  1
 Si  Si1  1  0.31275  0.75000  0.42768  1
 Si  Si2  1  0.68725  0.25000  0.57232  1
