CIF file written using JARVIS-Tools package.
data_AlCuRh2
_symmetry_space_group_name_H-M  'Immm'
_cell_length_a       9.39923
_cell_length_b       9.89759
_cell_length_c       9.89758
_cell_angle_alpha    60.4404
_cell_angle_beta     61.6521
_cell_angle_gamma    61.6521

_symmetry_Int_Tables_number  71
_chemical_formula_structural  AlCuRh2
_chemical_formula_sum  AlCuRh2
_cell_volume  669.1660089653295
_cell_formula_units_Z  1
loop_
  _symmetry_equiv_pos_site_id
 _symmetry_equiv_pos_as_xyz
 1  'x, y, z'
loop_
 _atom_site_type_symbol
 _atom_site_label
 _atom_site_symmetry_multiplicity
 _atom_site_fract_x
 _atom_site_fract_y
 _atom_site_fract_z
 _atom_site_fract_occupancy
 Al  Al1  1  0.00000  0.00000  0.00000  1
 Cu  Cu1  1  0.50000  0.00000  -0.00000  1
 Rh  Rh1  1  0.75773  -0.00000  0.00000  1
 Rh  Rh2  1  0.24227  0.00000  -0.00000  1
