CIF file written using JARVIS-Tools package.
data_Zn4B6SeO12
_symmetry_space_group_name_H-M  'I-43m'
_cell_length_a       6.69351
_cell_length_b       6.6935
_cell_length_c       6.6935
_cell_angle_alpha    109.471
_cell_angle_beta     109.471
_cell_angle_gamma    109.471

_symmetry_Int_Tables_number  217
_chemical_formula_structural  Zn4B6SeO12
_chemical_formula_sum  Zn4B6SeO2
_cell_volume  230.85465154728115
_cell_formula_units_Z  1
loop_
  _symmetry_equiv_pos_site_id
 _symmetry_equiv_pos_as_xyz
 1  'x, y, z'
loop_
 _atom_site_type_symbol
 _atom_site_label
 _atom_site_symmetry_multiplicity
 _atom_site_fract_x
 _atom_site_fract_y
 _atom_site_fract_z
 _atom_site_fract_occupancy
 B  B1  1  0.50000  0.25000  0.75000  1
 B  B2  1  0.75000  0.50000  0.25000  1
 B  B3  1  0.25000  0.50000  0.75000  1
 B  B4  1  0.75000  0.25000  0.50000  1
 B  B5  1  0.25000  0.75000  0.50000  1
 B  B6  1  0.50000  0.75000  0.25000  1
 O  O1  1  -0.00000  0.71474  0.42758  1
 O  O2  1  0.57242  0.57242  0.28716  1
 O  O3  1  0.42758  0.71474  0.00000  1
 O  O4  1  0.71474  0.42758  -0.00000  1
 O  O5  1  0.28526  0.28526  0.71284  1
 O  O6  1  0.57242  0.28716  0.57242  1
 O  O7  1  0.28716  0.57242  0.57242  1
 O  O8  1  0.00000  0.42758  0.71474  1
 O  O9  1  0.28526  0.71284  0.28526  1
 O  O10  1  0.71474  -0.00000  0.42758  1
 O  O11  1  0.71284  0.28526  0.28526  1
 O  O12  1  0.42758  0.00000  0.71474  1
 Se  Se1  1  0.00000  0.00000  0.00000  1
 Zn  Zn1  1  0.00000  0.00000  0.64566  1
 Zn  Zn2  1  0.35434  0.35434  0.35434  1
 Zn  Zn3  1  0.64566  -0.00000  -0.00000  1
 Zn  Zn4  1  -0.00000  0.64566  0.00000  1
