CIF file written using JARVIS-Tools package.
data_SrPd
_symmetry_space_group_name_H-M  'Cmcm'
_cell_length_a       4.21382
_cell_length_b       4.54015
_cell_length_c       6.03545
_cell_angle_alpha    90
_cell_angle_beta     69.5684
_cell_angle_gamma    90

_symmetry_Int_Tables_number  63
_chemical_formula_structural  SrPd
_chemical_formula_sum  Sr2Pd2
_cell_volume  108.20249480694005
_cell_formula_units_Z  2
loop_
  _symmetry_equiv_pos_site_id
 _symmetry_equiv_pos_as_xyz
 1  'x, y, z'
loop_
 _atom_site_type_symbol
 _atom_site_label
 _atom_site_symmetry_multiplicity
 _atom_site_fract_x
 _atom_site_fract_y
 _atom_site_fract_z
 _atom_site_fract_occupancy
 Pd  Pd1  1  0.42506  0.75000  0.14989  1
 Pd  Pd2  1  0.57494  0.25000  0.85011  1
 Sr  Sr1  1  0.13894  0.75000  0.72212  1
 Sr  Sr2  1  0.86106  0.25000  0.27788  1
