CIF file written using JARVIS-Tools package.
data_CaMgNiH4
_symmetry_space_group_name_H-M  'P2_13'
_cell_length_a       6.68885
_cell_length_b       6.68885
_cell_length_c       6.68885
_cell_angle_alpha    90
_cell_angle_beta     90
_cell_angle_gamma    90

_symmetry_Int_Tables_number  198
_chemical_formula_structural  CaMgNiH4
_chemical_formula_sum  Ca4Mg4Ni4H6
_cell_volume  299.2634286008119
_cell_formula_units_Z  4
loop_
  _symmetry_equiv_pos_site_id
 _symmetry_equiv_pos_as_xyz
 1  'x, y, z'
loop_
 _atom_site_type_symbol
 _atom_site_label
 _atom_site_symmetry_multiplicity
 _atom_site_fract_x
 _atom_site_fract_y
 _atom_site_fract_z
 _atom_site_fract_occupancy
 Ca  Ca1  1  0.66020  0.83980  0.16020  1
 Ca  Ca2  1  0.83980  0.16020  0.66020  1
 Ca  Ca3  1  0.16020  0.66020  0.83980  1
 Ca  Ca4  1  0.33980  0.33980  0.33980  1
 H  H1  1  0.44435  0.43557  0.73675  1
 H  H2  1  0.40947  0.59053  0.09053  1
 H  H3  1  0.55565  0.93557  0.76325  1
 H  H4  1  0.06443  0.26325  0.94435  1
 H  H5  1  0.76325  0.55565  0.93557  1
 H  H6  1  0.26325  0.94435  0.06443  1
 H  H7  1  0.94435  0.06443  0.26325  1
 H  H8  1  0.73675  0.44435  0.43557  1
 H  H9  1  0.93557  0.76325  0.55565  1
 H  H10  1  0.56443  0.23675  0.05565  1
 H  H11  1  0.23675  0.05565  0.56443  1
 H  H12  1  0.90947  0.90947  0.90947  1
 H  H13  1  0.43557  0.73675  0.44435  1
 H  H14  1  0.59053  0.09053  0.40947  1
 H  H15  1  0.05565  0.56443  0.23675  1
 H  H16  1  0.09053  0.40947  0.59053  1
 Mg  Mg1  1  0.65802  0.65802  0.65802  1
 Mg  Mg2  1  0.84198  0.34198  0.15802  1
 Mg  Mg3  1  0.15802  0.84198  0.34198  1
 Mg  Mg4  1  0.34198  0.15802  0.84198  1
 Ni  Ni1  1  0.95231  0.54769  0.45231  1
 Ni  Ni2  1  0.54769  0.45231  0.95231  1
 Ni  Ni3  1  0.45231  0.95231  0.54769  1
 Ni  Ni4  1  0.04769  0.04769  0.04769  1
