CIF file written using JARVIS-Tools package.
data_YTh4O10
_symmetry_space_group_name_H-M  'I4/m'
_cell_length_a       6.8418
_cell_length_b       5.58646
_cell_length_c       6.8418
_cell_angle_alpha    114.096
_cell_angle_beta     80.4054
_cell_angle_gamma    114.096

_symmetry_Int_Tables_number  87
_chemical_formula_structural  YTh4O10
_chemical_formula_sum  YTh4O0
_cell_volume  217.9165280177568
_cell_formula_units_Z  1
loop_
  _symmetry_equiv_pos_site_id
 _symmetry_equiv_pos_as_xyz
 1  'x, y, z'
loop_
 _atom_site_type_symbol
 _atom_site_label
 _atom_site_symmetry_multiplicity
 _atom_site_fract_x
 _atom_site_fract_y
 _atom_site_fract_z
 _atom_site_fract_occupancy
 O  O1  1  0.09992  0.14965  0.70145  1
 O  O2  1  0.09992  0.65172  0.70145  1
 O  O3  1  0.29855  0.44821  0.09992  1
 O  O4  1  0.70145  0.04973  0.90008  1
 O  O5  1  0.50000  0.75000  0.50000  1
 O  O6  1  0.70145  0.55179  0.90008  1
 O  O7  1  0.29855  0.95027  0.09992  1
 O  O8  1  0.50000  0.25000  0.50000  1
 O  O9  1  0.90008  0.34828  0.29855  1
 O  O10  1  0.90008  0.85035  0.29855  1
 Th  Th1  1  0.39918  0.60117  0.80316  1
 Th  Th2  1  0.19684  0.79801  0.39918  1
 Th  Th3  1  0.80316  0.20199  0.60082  1
 Th  Th4  1  0.60082  0.39883  0.19684  1
 Y  Y1  1  0.00000  0.00000  0.00000  1
