CIF file written using JARVIS-Tools package.
data_Li2FeNiO4
_symmetry_space_group_name_H-M  'P2/m'
_cell_length_a       5.03546
_cell_length_b       2.80206
_cell_length_c       5.12231
_cell_angle_alpha    90
_cell_angle_beta     111.835
_cell_angle_gamma    90

_symmetry_Int_Tables_number  10
_chemical_formula_structural  Li2FeNiO4
_chemical_formula_sum  Li2FeNiO4
_cell_volume  67.0893212505201
_cell_formula_units_Z  1
loop_
  _symmetry_equiv_pos_site_id
 _symmetry_equiv_pos_as_xyz
 1  'x, y, z'
loop_
 _atom_site_type_symbol
 _atom_site_label
 _atom_site_symmetry_multiplicity
 _atom_site_fract_x
 _atom_site_fract_y
 _atom_site_fract_z
 _atom_site_fract_occupancy
 Fe  Fe1  1  0.00000  0.50000  0.50000  1
 Li  Li1  1  0.50000  0.50000  0.00000  1
 Li  Li2  1  0.50000  0.00000  0.50000  1
 Ni  Ni1  1  0.00000  0.00000  0.00000  1
 O  O1  1  0.79085  0.50000  0.74728  1
 O  O2  1  0.20915  0.50000  0.25272  1
 O  O3  1  0.23810  0.00000  0.72902  1
 O  O4  1  0.76190  0.00000  0.27098  1
