CIF file written using JARVIS-Tools package.
data_Ca4PdO6
_symmetry_space_group_name_H-M  'R-3c'
_cell_length_a       6.55807
_cell_length_b       6.55807
_cell_length_c       6.55807
_cell_angle_alpha    90.5499
_cell_angle_beta     90.55
_cell_angle_gamma    90.5499

_symmetry_Int_Tables_number  167
_chemical_formula_structural  Ca4PdO6
_chemical_formula_sum  Ca8Pd2O2
_cell_volume  282.0120974733093
_cell_formula_units_Z  2
loop_
  _symmetry_equiv_pos_site_id
 _symmetry_equiv_pos_as_xyz
 1  'x, y, z'
loop_
 _atom_site_type_symbol
 _atom_site_label
 _atom_site_symmetry_multiplicity
 _atom_site_fract_x
 _atom_site_fract_y
 _atom_site_fract_z
 _atom_site_fract_occupancy
 Ca  Ca1  1  0.61655  0.88345  0.25000  1
 Ca  Ca2  1  0.25000  0.61655  0.88345  1
 Ca  Ca3  1  0.88345  0.25000  0.61655  1
 Ca  Ca4  1  0.38345  0.11655  0.75000  1
 Ca  Ca5  1  0.75000  0.38345  0.11655  1
 Ca  Ca6  1  0.11655  0.75000  0.38345  1
 Ca  Ca7  1  0.75000  0.75000  0.75000  1
 Ca  Ca8  1  0.25000  0.25000  0.25000  1
 O  O1  1  0.57105  0.44560  0.79745  1
 O  O2  1  0.44560  0.79745  0.57105  1
 O  O3  1  0.05440  0.92895  0.70255  1
 O  O4  1  0.92895  0.70255  0.05440  1
 O  O5  1  0.70255  0.05440  0.92895  1
 O  O6  1  0.20255  0.42895  0.55440  1
 O  O7  1  0.07105  0.29745  0.94560  1
 O  O8  1  0.55440  0.20255  0.42895  1
 O  O9  1  0.79745  0.57105  0.44560  1
 O  O10  1  0.94560  0.07105  0.29745  1
 O  O11  1  0.42895  0.55440  0.20255  1
 O  O12  1  0.29745  0.94560  0.07105  1
 Pd  Pd1  1  0.00000  0.00000  0.00000  1
 Pd  Pd2  1  0.50000  0.50000  0.50000  1
