CIF file written using JARVIS-Tools package.
data_LiCrSiO4
_symmetry_space_group_name_H-M  'Imma'
_cell_length_a       5.7158
_cell_length_b       5.7158
_cell_length_c       5.5212
_cell_angle_alpha    118.88
_cell_angle_beta     61.12
_cell_angle_gamma    118.385

_symmetry_Int_Tables_number  74
_chemical_formula_structural  LiCrSiO4
_chemical_formula_sum  Li2Cr2Si2O8
_cell_volume  131.22570884061537
_cell_formula_units_Z  2
loop_
  _symmetry_equiv_pos_site_id
 _symmetry_equiv_pos_as_xyz
 1  'x, y, z'
loop_
 _atom_site_type_symbol
 _atom_site_label
 _atom_site_symmetry_multiplicity
 _atom_site_fract_x
 _atom_site_fract_y
 _atom_site_fract_z
 _atom_site_fract_occupancy
 Cr  Cr1  1  0.62500  0.87500  0.62500  1
 Cr  Cr2  1  0.12500  0.37500  0.62500  1
 Li  Li1  1  0.99594  0.00406  0.00406  1
 Li  Li2  1  0.25406  0.74594  0.24594  1
 O  O1  1  0.84439  0.15561  0.89317  1
 O  O2  1  0.84439  0.15561  0.41804  1
 O  O3  1  0.42039  0.16178  0.87070  1
 O  O4  1  0.83822  0.57961  0.87070  1
 O  O5  1  0.41178  0.17039  0.37930  1
 O  O6  1  0.82961  0.58822  0.37930  1
 O  O7  1  0.40561  0.59439  0.35683  1
 O  O8  1  0.40561  0.59439  0.83196  1
 Si  Si1  1  0.62500  0.37500  0.62500  1
 Si  Si2  1  0.62500  0.37500  0.12500  1
