CIF file written using JARVIS-Tools package.
data_RuCl3
_symmetry_space_group_name_H-M  'P6_3/mcm'
_cell_length_a       6.06765
_cell_length_b       6.06765
_cell_length_c       5.67394
_cell_angle_alpha    90
_cell_angle_beta     90
_cell_angle_gamma    120

_symmetry_Int_Tables_number  193
_chemical_formula_structural  RuCl3
_chemical_formula_sum  Ru2Cl6
_cell_volume  180.90740647265042
_cell_formula_units_Z  2
loop_
  _symmetry_equiv_pos_site_id
 _symmetry_equiv_pos_as_xyz
 1  'x, y, z'
loop_
 _atom_site_type_symbol
 _atom_site_label
 _atom_site_symmetry_multiplicity
 _atom_site_fract_x
 _atom_site_fract_y
 _atom_site_fract_z
 _atom_site_fract_occupancy
 Cl  Cl1  1  -0.00000  0.31275  0.25000  1
 Cl  Cl2  1  0.31275  0.31275  0.75000  1
 Cl  Cl3  1  0.00000  0.68725  0.75000  1
 Cl  Cl4  1  0.68725  0.68725  0.25000  1
 Cl  Cl5  1  0.31275  -0.00000  0.25000  1
 Cl  Cl6  1  0.68725  0.00000  0.75000  1
 Ru  Ru1  1  0.00000  0.00000  0.50000  1
 Ru  Ru2  1  0.00000  0.00000  0.00000  1
