CIF file written using JARVIS-Tools package.
data_ZnSbAsO5
_symmetry_space_group_name_H-M  'P2_12_12_1'
_cell_length_a       7.62249
_cell_length_b       7.63267
_cell_length_c       8.70399
_cell_angle_alpha    90
_cell_angle_beta     90.0012
_cell_angle_gamma    90

_symmetry_Int_Tables_number  19
_chemical_formula_structural  ZnSbAsO5
_chemical_formula_sum  Zn4Sb4As4O20
_cell_volume  506.39743524633195
_cell_formula_units_Z  4
loop_
  _symmetry_equiv_pos_site_id
 _symmetry_equiv_pos_as_xyz
 1  'x, y, z'
loop_
 _atom_site_type_symbol
 _atom_site_label
 _atom_site_symmetry_multiplicity
 _atom_site_fract_x
 _atom_site_fract_y
 _atom_site_fract_z
 _atom_site_fract_occupancy
 As  As1  1  0.34989  0.18348  0.32376  1
 As  As2  1  0.84989  0.31652  0.17624  1
 As  As3  1  0.65011  0.68348  0.67624  1
 As  As4  1  0.15011  0.81652  0.82376  1
 O  O1  1  0.89169  0.10658  0.23877  1
 O  O2  1  0.16045  0.20631  0.43348  1
 O  O3  1  0.50782  0.10616  0.44598  1
 O  O4  1  0.39169  0.39342  0.26122  1
 O  O5  1  0.31891  0.05048  0.16454  1
 O  O6  1  0.00782  0.39385  0.05403  1
 O  O7  1  0.49218  0.60616  0.55402  1
 O  O8  1  0.42615  0.16129  0.86019  1
 O  O9  1  0.33956  0.79369  0.93348  1
 O  O10  1  0.66044  0.29369  0.06652  1
 O  O11  1  0.83955  0.70631  0.56652  1
 O  O12  1  0.99218  0.89385  0.94597  1
 O  O13  1  0.68109  0.55048  0.83546  1
 O  O14  1  0.07384  0.83870  0.36019  1
 O  O15  1  0.18108  0.94951  0.66453  1
 O  O16  1  0.60831  0.89342  0.73878  1
 O  O17  1  0.92616  0.33870  0.63981  1
 O  O18  1  0.57385  0.66129  0.13981  1
 O  O19  1  0.10831  0.60658  0.76123  1
 O  O20  1  0.81892  0.44951  0.33547  1
 Sb  Sb1  1  0.96310  0.01863  0.48989  1
 Sb  Sb2  1  0.53690  0.98137  -0.01010  1
 Sb  Sb3  1  0.46310  0.48137  0.01010  1
 Sb  Sb4  1  0.03690  0.51863  0.51011  1
 Zn  Zn1  1  0.07107  0.91961  0.15432  1
 Zn  Zn2  1  0.42893  0.08039  0.65432  1
 Zn  Zn3  1  0.57107  0.58039  0.34568  1
 Zn  Zn4  1  0.92893  0.41961  0.84568  1
