CIF file written using JARVIS-Tools package.
data_InPb2I5
_symmetry_space_group_name_H-M  'I4/mcm'
_cell_length_a       8.93602
_cell_length_b       8.93602
_cell_length_c       9.84885
_cell_angle_alpha    116.979
_cell_angle_beta     116.979
_cell_angle_gamma    90

_symmetry_Int_Tables_number  140
_chemical_formula_structural  InPb2I5
_chemical_formula_sum  In2Pb4I0
_cell_volume  603.261634388694
_cell_formula_units_Z  2
loop_
  _symmetry_equiv_pos_site_id
 _symmetry_equiv_pos_as_xyz
 1  'x, y, z'
loop_
 _atom_site_type_symbol
 _atom_site_label
 _atom_site_symmetry_multiplicity
 _atom_site_fract_x
 _atom_site_fract_y
 _atom_site_fract_z
 _atom_site_fract_occupancy
 I  I1  1  0.79789  0.29789  0.28499  1
 I  I2  1  0.20211  0.70211  0.71501  1
 I  I3  1  0.48710  0.98710  0.28499  1
 I  I4  1  0.51290  0.01290  0.71501  1
 I  I5  1  0.00000  0.00000  0.00000  1
 I  I6  1  0.50000  0.50000  0.00000  1
 I  I7  1  0.70211  0.51290  0.71501  1
 I  I8  1  0.29789  0.48710  0.28499  1
 I  I9  1  0.01290  0.20211  0.71501  1
 I  I10  1  0.98710  0.79789  0.28499  1
 In  In1  1  0.25000  0.25000  0.50000  1
 In  In2  1  0.75000  0.75000  0.50000  1
 Pb  Pb1  1  0.16018  0.66018  0.00000  1
 Pb  Pb2  1  0.83982  0.33982  -0.00000  1
 Pb  Pb3  1  0.66018  0.83982  0.00000  1
 Pb  Pb4  1  0.33982  0.16018  -0.00000  1
