CIF file written using JARVIS-Tools package.
data_Li3Co2Si2O8
_symmetry_space_group_name_H-M  'Cm'
_cell_length_a       5.19439
_cell_length_b       5.19541
_cell_length_c       6.36213
_cell_angle_alpha    90.7038
_cell_angle_beta     90.7022
_cell_angle_gamma    91.8209

_symmetry_Int_Tables_number  8
_chemical_formula_structural  Li3Co2Si2O8
_chemical_formula_sum  Li3Co2Si2O8
_cell_volume  171.58126790634822
_cell_formula_units_Z  1
loop_
  _symmetry_equiv_pos_site_id
 _symmetry_equiv_pos_as_xyz
 1  'x, y, z'
loop_
 _atom_site_type_symbol
 _atom_site_label
 _atom_site_symmetry_multiplicity
 _atom_site_fract_x
 _atom_site_fract_y
 _atom_site_fract_z
 _atom_site_fract_occupancy
 Co  Co1  1  0.81310  0.19182  0.00492  1
 Co  Co2  1  0.19173  0.81302  0.00498  1
 Li  Li1  1  0.82651  0.17318  0.49475  1
 Li  Li2  1  0.31602  0.31600  0.73671  1
 Li  Li3  1  0.17310  0.82642  0.49474  1
 O  O1  1  0.82070  0.82085  0.95944  1
 O  O2  1  0.71569  0.36670  0.75762  1
 O  O3  1  0.81330  0.81349  0.54062  1
 O  O4  1  0.63898  0.27472  0.24539  1
 O  O5  1  0.36651  0.71550  0.75763  1
 O  O6  1  0.20464  0.20448  0.46718  1
 O  O7  1  0.27449  0.63878  0.24540  1
 O  O8  1  0.19651  0.19634  0.03346  1
 Si  Si1  1  0.68600  0.68609  0.74061  1
 Si  Si2  1  0.32932  0.32924  0.25947  1
