CIF file written using JARVIS-Tools package.
data_MoS2
_symmetry_space_group_name_H-M  'P6_3/mmc'
_cell_length_a       3.19159
_cell_length_b       3.19159
_cell_length_c       12.4789
_cell_angle_alpha    90
_cell_angle_beta     90
_cell_angle_gamma    120

_symmetry_Int_Tables_number  194
_chemical_formula_structural  MoS2
_chemical_formula_sum  Mo2S4
_cell_volume  110.08375827060286
_cell_formula_units_Z  2
loop_
  _symmetry_equiv_pos_site_id
 _symmetry_equiv_pos_as_xyz
 1  'x, y, z'
loop_
 _atom_site_type_symbol
 _atom_site_label
 _atom_site_symmetry_multiplicity
 _atom_site_fract_x
 _atom_site_fract_y
 _atom_site_fract_z
 _atom_site_fract_occupancy
 Mo  Mo1  1  0.66667  0.33333  0.25000  1
 Mo  Mo2  1  0.33333  0.66667  0.75000  1
 S  S1  1  0.33333  0.66667  0.12445  1
 S  S2  1  0.66667  0.33333  0.62445  1
 S  S3  1  0.33333  0.66667  0.37555  1
 S  S4  1  0.66667  0.33333  0.87555  1
