CIF file written using JARVIS-Tools package.
data_ZnS
_symmetry_space_group_name_H-M  'P3m1'
_cell_length_a       3.83924
_cell_length_b       3.83924
_cell_length_c       44.0108
_cell_angle_alpha    90
_cell_angle_beta     90
_cell_angle_gamma    120

_symmetry_Int_Tables_number  156
_chemical_formula_structural  ZnS
_chemical_formula_sum  Zn4S4
_cell_volume  561.7987033841156
_cell_formula_units_Z  14
loop_
  _symmetry_equiv_pos_site_id
 _symmetry_equiv_pos_as_xyz
 1  'x, y, z'
loop_
 _atom_site_type_symbol
 _atom_site_label
 _atom_site_symmetry_multiplicity
 _atom_site_fract_x
 _atom_site_fract_y
 _atom_site_fract_z
 _atom_site_fract_occupancy
 S  S1  1  0.66667  0.33333  0.12497  1
 S  S2  1  0.33333  0.66667  0.62495  1
 S  S3  1  0.00000  0.00000  0.76760  1
 S  S4  1  0.33333  0.66667  0.98231  1
 S  S5  1  0.33333  0.66667  0.19653  1
 S  S6  1  0.00000  0.00000  0.91072  1
 S  S7  1  0.66667  0.33333  0.69630  1
 S  S8  1  0.33333  0.66667  0.41074  1
 S  S9  1  0.00000  0.00000  0.33918  1
 S  S10  1  0.66667  0.33333  0.55339  1
 S  S11  1  0.33333  0.66667  0.83915  1
 S  S12  1  0.00000  0.00000  0.05367  1
 S  S13  1  0.66667  0.33333  0.26788  1
 S  S14  1  0.00000  0.00000  0.48209  1
 Zn  Zn1  1  0.33333  0.66667  0.14296  1
 Zn  Zn2  1  0.33333  0.66667  0.57138  1
 Zn  Zn3  1  0.33333  0.66667  0.78558  1
 Zn  Zn4  1  0.00000  0.00000  0.71415  1
 Zn  Zn5  1  0.00000  0.00000  0.28572  1
 Zn  Zn6  1  0.00000  0.00000  0.85718  1
 Zn  Zn7  1  0.66667  0.33333  0.64286  1
 Zn  Zn8  1  0.00000  0.00000  0.42865  1
 Zn  Zn9  1  0.33333  0.66667  0.92876  1
 Zn  Zn10  1  0.66667  0.33333  0.49994  1
 Zn  Zn11  1  0.33333  0.66667  0.35716  1
 Zn  Zn12  1  0.00000  0.00000  0.00022  1
 Zn  Zn13  1  0.66667  0.33333  0.07152  1
 Zn  Zn14  1  0.66667  0.33333  0.21444  1
