CIF file written using JARVIS-Tools package.
data_SiO2
_symmetry_space_group_name_H-M  'C222_1'
_cell_length_a       4.77653
_cell_length_b       5.88125
_cell_length_c       5.88125
_cell_angle_alpha    95.8767
_cell_angle_beta     90
_cell_angle_gamma    90

_symmetry_Int_Tables_number  20
_chemical_formula_structural  SiO2
_chemical_formula_sum  Si4O8
_cell_volume  164.34750480091049
_cell_formula_units_Z  4
loop_
  _symmetry_equiv_pos_site_id
 _symmetry_equiv_pos_as_xyz
 1  'x, y, z'
loop_
 _atom_site_type_symbol
 _atom_site_label
 _atom_site_symmetry_multiplicity
 _atom_site_fract_x
 _atom_site_fract_y
 _atom_site_fract_z
 _atom_site_fract_occupancy
 O  O1  1  0.39858  0.47944  0.89672  1
 O  O2  1  0.60142  0.89672  0.47944  1
 O  O3  1  0.00000  0.73387  0.73387  1
 O  O4  1  0.89858  0.52056  0.10328  1
 O  O5  1  0.10142  0.10328  0.52056  1
 O  O6  1  0.25000  0.87275  0.12725  1
 O  O7  1  0.50000  0.26613  0.26613  1
 O  O8  1  0.75000  0.12725  0.87275  1
 Si  Si1  1  0.36271  0.03437  0.34888  1
 Si  Si2  1  0.86271  0.96563  0.65112  1
 Si  Si3  1  0.13729  0.65112  0.96563  1
 Si  Si4  1  0.63729  0.34888  0.03437  1
