CIF file written using JARVIS-Tools package.
data_ReAgO4
_symmetry_space_group_name_H-M  'I4_1/a'
_cell_length_a       5.38819
_cell_length_b       5.38866
_cell_length_c       6.94597
_cell_angle_alpha    112.827
_cell_angle_beta     112.814
_cell_angle_gamma    90.0033

_symmetry_Int_Tables_number  88
_chemical_formula_structural  ReAgO4
_chemical_formula_sum  Re2Ag2O8
_cell_volume  168.63111760198132
_cell_formula_units_Z  2
loop_
  _symmetry_equiv_pos_site_id
 _symmetry_equiv_pos_as_xyz
 1  'x, y, z'
loop_
 _atom_site_type_symbol
 _atom_site_label
 _atom_site_symmetry_multiplicity
 _atom_site_fract_x
 _atom_site_fract_y
 _atom_site_fract_z
 _atom_site_fract_occupancy
 Ag  Ag1  1  0.62499  0.37498  0.75000  1
 Ag  Ag2  1  0.37501  0.62502  0.25000  1
 O  O1  1  0.92779  0.27205  0.07855  1
 O  O2  1  0.27207  0.65081  0.57853  1
 O  O3  1  0.80648  0.92779  0.57857  1
 O  O4  1  0.65076  0.80644  0.07852  1
 O  O5  1  0.34924  0.19356  0.92148  1
 O  O6  1  0.19352  0.07221  0.42143  1
 O  O7  1  0.72793  0.34919  0.42147  1
 O  O8  1  0.07221  0.72795  0.92145  1
 Re  Re1  1  0.87500  0.12497  0.24999  1
 Re  Re2  1  0.12500  0.87503  0.75001  1
