CIF file written using JARVIS-Tools package.
data_SbO2
_symmetry_space_group_name_H-M  'Imma'
_cell_length_a       6.23645
_cell_length_b       6.74838
_cell_length_c       6.74846
_cell_angle_alpha    91.2325
_cell_angle_beta     117.513
_cell_angle_gamma    117.512

_symmetry_Int_Tables_number  74
_chemical_formula_structural  SbO2
_chemical_formula_sum  Sb4O8
_cell_volume  213.21535105377518
_cell_formula_units_Z  4
loop_
  _symmetry_equiv_pos_site_id
 _symmetry_equiv_pos_as_xyz
 1  'x, y, z'
loop_
 _atom_site_type_symbol
 _atom_site_label
 _atom_site_symmetry_multiplicity
 _atom_site_fract_x
 _atom_site_fract_y
 _atom_site_fract_z
 _atom_site_fract_occupancy
 O  O1  1  0.55780  0.30182  0.81366  1
 O  O2  1  0.05779  0.31366  0.80182  1
 O  O3  1  0.01575  0.70579  0.79427  1
 O  O4  1  0.94221  0.68634  0.19818  1
 O  O5  1  0.48425  0.70573  0.79421  1
 O  O6  1  0.51575  0.29427  0.20579  1
 O  O7  1  0.98425  0.29421  0.20573  1
 O  O8  1  0.44220  0.69818  0.18634  1
 Sb  Sb1  1  0.50000  0.50000  -0.00000  1
 Sb  Sb2  1  -0.00000  0.50000  -0.00000  1
 Sb  Sb3  1  -0.00000  0.50000  0.50000  1
 Sb  Sb4  1  0.50000  0.00000  0.00000  1
