CIF file written using JARVIS-Tools package.
data_Li3FeSb4O12
_symmetry_space_group_name_H-M  'P1'
_cell_length_a       5.16623
_cell_length_b       5.62733
_cell_length_c       7.64387
_cell_angle_alpha    84.7572
_cell_angle_beta     89.969
_cell_angle_gamma    89.4917

_symmetry_Int_Tables_number  1
_chemical_formula_structural  Li3FeSb4O12
_chemical_formula_sum  Li3FeSb4O2
_cell_volume  221.28484484663304
_cell_formula_units_Z  1
loop_
  _symmetry_equiv_pos_site_id
 _symmetry_equiv_pos_as_xyz
 1  'x, y, z'
loop_
 _atom_site_type_symbol
 _atom_site_label
 _atom_site_symmetry_multiplicity
 _atom_site_fract_x
 _atom_site_fract_y
 _atom_site_fract_z
 _atom_site_fract_occupancy
 Fe  Fe1  1  0.99435  0.61366  0.30058  1
 Li  Li1  1  0.49794  0.05775  0.79099  1
 Li  Li2  1  0.00046  0.57216  0.78062  1
 Li  Li3  1  0.49882  0.03834  0.27727  1
 O  O1  1  0.70539  0.77553  0.39507  1
 O  O2  1  0.14153  0.92859  0.23693  1
 O  O3  1  0.66445  0.15804  0.05773  1
 O  O4  1  0.81973  0.33696  0.38369  1
 O  O5  1  0.85135  0.95515  0.76119  1
 O  O6  1  0.64159  0.47115  0.74804  1
 O  O7  1  0.32196  0.45977  0.24193  1
 O  O8  1  0.15257  0.63551  0.53000  1
 O  O9  1  0.19337  0.28943  0.90648  1
 O  O10  1  0.29968  0.78552  0.90434  1
 O  O11  1  0.83217  0.65140  0.06888  1
 O  O12  1  0.38247  0.14368  0.54610  1
 Sb  Sb1  1  0.49337  0.48707  -0.00243  1
 Sb  Sb2  1  0.00671  0.02172  0.50952  1
 Sb  Sb3  1  0.50294  0.48335  0.49859  1
 Sb  Sb4  1  -0.00084  -0.00557  0.99408  1
