CIF file written using JARVIS-Tools package.
data_Li5Mn7O12
_symmetry_space_group_name_H-M  'C2'
_cell_length_a       5.1039
_cell_length_b       5.10389
_cell_length_c       9.80519
_cell_angle_alpha    85.8131
_cell_angle_beta     94.1869
_cell_angle_gamma    61.9166

_symmetry_Int_Tables_number  5
_chemical_formula_structural  Li5Mn7O12
_chemical_formula_sum  Li5Mn7O2
_cell_volume  223.06893479185712
_cell_formula_units_Z  1
loop_
  _symmetry_equiv_pos_site_id
 _symmetry_equiv_pos_as_xyz
 1  'x, y, z'
loop_
 _atom_site_type_symbol
 _atom_site_label
 _atom_site_symmetry_multiplicity
 _atom_site_fract_x
 _atom_site_fract_y
 _atom_site_fract_z
 _atom_site_fract_occupancy
 Li  Li1  1  0.15736  0.66232  0.50795  1
 Li  Li2  1  0.33170  0.84286  0.99050  1
 Li  Li3  1  0.66232  0.15736  0.99205  1
 Li  Li4  1  0.84286  0.33170  0.50950  1
 Li  Li5  1  0.92091  0.92091  0.75000  1
 Mn  Mn1  1  0.07427  0.07427  0.25000  1
 Mn  Mn2  1  -0.00380  0.50756  0.99628  1
 Mn  Mn3  1  0.74546  0.74546  0.25000  1
 Mn  Mn4  1  0.25417  0.25417  0.75000  1
 Mn  Mn5  1  0.41660  0.41660  0.25000  1
 Mn  Mn6  1  0.58389  0.58389  0.75000  1
 Mn  Mn7  1  0.50756  -0.00380  0.50372  1
 O  O1  1  0.83588  0.65176  0.62220  1
 O  O2  1  0.79824  0.00478  0.37688  1
 O  O3  1  0.99419  0.21330  0.87283  1
 O  O4  1  0.21330  0.99419  0.62717  1
 O  O5  1  0.16767  0.34103  0.37869  1
 O  O6  1  0.34103  0.16767  0.12131  1
 O  O7  1  0.31089  0.52357  0.86483  1
 O  O8  1  0.52357  0.31089  0.63517  1
 O  O9  1  0.47360  0.69181  0.36596  1
 O  O10  1  0.69181  0.47360  0.13404  1
 O  O11  1  0.65176  0.83588  0.87780  1
 O  O12  1  0.00478  0.79824  0.12312  1
