CIF file written using JARVIS-Tools package.
data_SrSnB2O6
_symmetry_space_group_name_H-M  'R-3'
_cell_length_a       6.30922
_cell_length_b       6.30922
_cell_length_c       6.30922
_cell_angle_alpha    46.6386
_cell_angle_beta     46.6386
_cell_angle_gamma    46.6386

_symmetry_Int_Tables_number  148
_chemical_formula_structural  SrSnB2O6
_chemical_formula_sum  SrSnB2O6
_cell_volume  121.25398682937266
_cell_formula_units_Z  1
loop_
  _symmetry_equiv_pos_site_id
 _symmetry_equiv_pos_as_xyz
 1  'x, y, z'
loop_
 _atom_site_type_symbol
 _atom_site_label
 _atom_site_symmetry_multiplicity
 _atom_site_fract_x
 _atom_site_fract_y
 _atom_site_fract_z
 _atom_site_fract_occupancy
 B  B1  1  0.76411  0.76411  0.76411  1
 B  B2  1  0.23589  0.23589  0.23589  1
 O  O1  1  0.71693  0.50859  0.05705  1
 O  O2  1  0.05705  0.71693  0.50859  1
 O  O3  1  0.49141  0.94295  0.28307  1
 O  O4  1  0.28307  0.49141  0.94295  1
 O  O5  1  0.94295  0.28307  0.49141  1
 O  O6  1  0.50859  0.05705  0.71693  1
 Sn  Sn1  1  0.50000  0.50000  0.50000  1
 Sr  Sr1  1  0.00000  0.00000  0.00000  1
