CIF file written using JARVIS-Tools package.
data_Te4Mo3WSe2S2
_symmetry_space_group_name_H-M  'P3m1'
_cell_length_a       3.40846
_cell_length_b       3.40846
_cell_length_c       36.3826
_cell_angle_alpha    90.0004
_cell_angle_beta     90.0004
_cell_angle_gamma    120

_symmetry_Int_Tables_number  156
_chemical_formula_structural  Te4Mo3WSe2S2
_chemical_formula_sum  Te4Mo3WSe2S2
_cell_volume  366.04961765051064
_cell_formula_units_Z  1
loop_
  _symmetry_equiv_pos_site_id
 _symmetry_equiv_pos_as_xyz
 1  'x, y, z'
loop_
 _atom_site_type_symbol
 _atom_site_label
 _atom_site_symmetry_multiplicity
 _atom_site_fract_x
 _atom_site_fract_y
 _atom_site_fract_z
 _atom_site_fract_occupancy
 Mo  Mo1  1  0.33332  0.66665  0.09660  1
 Mo  Mo2  1  0.33333  0.66667  0.46879  1
 Mo  Mo3  1  0.66668  0.33335  0.65827  1
 S  S1  1  0.66665  0.33331  0.05538  1
 S  S2  1  0.66666  0.33332  0.13787  1
 Se  Se1  1  0.66666  0.33332  0.42350  1
 Se  Se2  1  0.66667  0.33335  0.51407  1
 Te  Te1  1  0.33333  0.66667  0.33108  1
 Te  Te2  1  0.33336  0.66670  0.70972  1
 Te  Te3  1  0.33333  0.66666  0.22744  1
 Te  Te4  1  0.33333  0.66666  0.60674  1
 W  W1  1  0.66666  0.33333  0.27930  1
