CIF file written using JARVIS-Tools package.
data_Sr2BN2F
_symmetry_space_group_name_H-M  'Pnma'
_cell_length_a       3.90778
_cell_length_b       9.89414
_cell_length_c       10.2381
_cell_angle_alpha    90
_cell_angle_beta     90
_cell_angle_gamma    90

_symmetry_Int_Tables_number  62
_chemical_formula_structural  Sr2BN2F
_chemical_formula_sum  Sr8B4N8F4
_cell_volume  395.8463181344092
_cell_formula_units_Z  4
loop_
  _symmetry_equiv_pos_site_id
 _symmetry_equiv_pos_as_xyz
 1  'x, y, z'
loop_
 _atom_site_type_symbol
 _atom_site_label
 _atom_site_symmetry_multiplicity
 _atom_site_fract_x
 _atom_site_fract_y
 _atom_site_fract_z
 _atom_site_fract_occupancy
 B  B1  1  0.75000  0.27137  0.67292  1
 B  B2  1  0.25000  0.72863  0.32708  1
 B  B3  1  0.75000  0.77137  0.82708  1
 B  B4  1  0.25000  0.22863  0.17292  1
 F  F1  1  0.75000  0.54626  0.10160  1
 F  F2  1  0.25000  0.45374  0.89840  1
 F  F3  1  0.75000  0.04626  0.39840  1
 F  F4  1  0.25000  0.95374  0.60160  1
 N  N1  1  0.25000  0.64725  0.43339  1
 N  N2  1  0.75000  0.35275  0.56661  1
 N  N3  1  0.25000  0.14725  0.06661  1
 N  N4  1  0.75000  0.18297  0.77113  1
 N  N5  1  0.25000  0.31703  0.27113  1
 N  N6  1  0.75000  0.68297  0.72887  1
 N  N7  1  0.25000  0.81703  0.22887  1
 N  N8  1  0.75000  0.85275  0.93339  1
 Sr  Sr1  1  0.25000  0.02613  0.83910  1
 Sr  Sr2  1  0.75000  0.47387  0.33910  1
 Sr  Sr3  1  0.25000  0.52613  0.66090  1
 Sr  Sr4  1  0.75000  0.32262  0.98047  1
 Sr  Sr5  1  0.25000  0.17738  0.48047  1
 Sr  Sr6  1  0.75000  0.82262  0.51953  1
 Sr  Sr7  1  0.75000  0.97387  0.16090  1
 Sr  Sr8  1  0.25000  0.67738  0.01953  1
