CIF file written using JARVIS-Tools package.
data_Na3AuO2
_symmetry_space_group_name_H-M  'P4_2/mnm'
_cell_length_a       9.72233
_cell_length_b       9.72233
_cell_length_c       4.58902
_cell_angle_alpha    90
_cell_angle_beta     90
_cell_angle_gamma    90

_symmetry_Int_Tables_number  136
_chemical_formula_structural  Na3AuO2
_chemical_formula_sum  Na2Au4O8
_cell_volume  433.7716925242387
_cell_formula_units_Z  4
loop_
  _symmetry_equiv_pos_site_id
 _symmetry_equiv_pos_as_xyz
 1  'x, y, z'
loop_
 _atom_site_type_symbol
 _atom_site_label
 _atom_site_symmetry_multiplicity
 _atom_site_fract_x
 _atom_site_fract_y
 _atom_site_fract_z
 _atom_site_fract_occupancy
 Au  Au1  1  0.33283  0.66717  0.50000  1
 Au  Au2  1  0.83283  0.83283  0.00000  1
 Au  Au3  1  0.16717  0.16717  0.00000  1
 Au  Au4  1  0.66717  0.33283  0.50000  1
 Na  Na1  1  0.65811  0.65811  0.50000  1
 Na  Na2  1  0.15132  0.51324  0.00000  1
 Na  Na3  1  0.98676  0.65132  0.50000  1
 Na  Na4  1  0.84868  0.48676  0.00000  1
 Na  Na5  1  0.65132  0.98676  0.50000  1
 Na  Na6  1  0.15811  0.84189  0.00000  1
 Na  Na7  1  0.51324  0.15132  0.00000  1
 Na  Na8  1  0.48676  0.84868  0.00000  1
 Na  Na9  1  0.84189  0.15811  0.00000  1
 Na  Na10  1  0.34189  0.34189  0.50000  1
 Na  Na11  1  0.01324  0.34868  0.50000  1
 Na  Na12  1  0.34868  0.01324  0.50000  1
 O  O1  1  0.98361  0.68979  0.00000  1
 O  O2  1  0.01639  0.31021  0.00000  1
 O  O3  1  0.31021  0.01639  0.00000  1
 O  O4  1  0.68979  0.98361  0.00000  1
 O  O5  1  0.48361  0.81021  0.50000  1
 O  O6  1  0.51639  0.18979  0.50000  1
 O  O7  1  0.18979  0.51639  0.50000  1
 O  O8  1  0.81021  0.48361  0.50000  1
