CIF file written using JARVIS-Tools package.
data_MnTlF3
_symmetry_space_group_name_H-M  'Pm-3m'
_cell_length_a       4.26051
_cell_length_b       4.26054
_cell_length_c       4.26065
_cell_angle_alpha    89.9943
_cell_angle_beta     89.9883
_cell_angle_gamma    89.9989

_symmetry_Int_Tables_number  221
_chemical_formula_structural  MnTlF3
_chemical_formula_sum  MnTlF3
_cell_volume  77.33975079811762
_cell_formula_units_Z  1
loop_
  _symmetry_equiv_pos_site_id
 _symmetry_equiv_pos_as_xyz
 1  'x, y, z'
loop_
 _atom_site_type_symbol
 _atom_site_label
 _atom_site_symmetry_multiplicity
 _atom_site_fract_x
 _atom_site_fract_y
 _atom_site_fract_z
 _atom_site_fract_occupancy
 F  F1  1  0.48799  0.00000  0.49813  1
 F  F2  1  0.98799  0.49998  0.49797  1
 F  F3  1  0.48794  0.50007  0.99800  1
 Mn  Mn1  1  0.48801  0.49999  0.49798  1
 Tl  Tl1  1  0.98807  -0.00004  0.99791  1
