CIF file written using JARVIS-Tools package.
data_Ca2BiAsO6
_symmetry_space_group_name_H-M  'Cmc2_1'
_cell_length_a       5.61468
_cell_length_b       7.42112
_cell_length_c       7.42112
_cell_angle_alpha    106.039
_cell_angle_beta     90
_cell_angle_gamma    90

_symmetry_Int_Tables_number  36
_chemical_formula_structural  Ca2BiAsO6
_chemical_formula_sum  Ca4Bi2As2O2
_cell_volume  297.1800772059592
_cell_formula_units_Z  2
loop_
  _symmetry_equiv_pos_site_id
 _symmetry_equiv_pos_as_xyz
 1  'x, y, z'
loop_
 _atom_site_type_symbol
 _atom_site_label
 _atom_site_symmetry_multiplicity
 _atom_site_fract_x
 _atom_site_fract_y
 _atom_site_fract_z
 _atom_site_fract_occupancy
 As  As1  1  0.80365  0.18228  0.81772  1
 As  As2  1  0.30365  0.81772  0.18228  1
 Bi  Bi1  1  0.25170  0.40735  0.59265  1
 Bi  Bi2  1  0.75170  0.59265  0.40735  1
 Ca  Ca1  1  0.76339  0.69822  0.90792  1
 Ca  Ca2  1  0.76339  0.09208  0.30178  1
 Ca  Ca3  1  0.26339  0.90792  0.69822  1
 Ca  Ca4  1  0.26339  0.30178  0.09208  1
 O  O1  1  0.51161  0.65080  0.65833  1
 O  O2  1  0.92335  0.04723  0.95277  1
 O  O3  1  0.42391  0.91310  0.40219  1
 O  O4  1  0.51161  0.34167  0.34920  1
 O  O5  1  0.92391  0.40219  0.91310  1
 O  O6  1  0.42335  0.95277  0.04723  1
 O  O7  1  0.49749  0.18883  0.81117  1
 O  O8  1  0.01161  0.65833  0.65080  1
 O  O9  1  0.99749  0.81117  0.18883  1
 O  O10  1  0.42391  0.59781  0.08690  1
 O  O11  1  0.01161  0.34920  0.34167  1
 O  O12  1  0.92391  0.08690  0.59781  1
