CIF file written using JARVIS-Tools package.
data_DyVO3
_symmetry_space_group_name_H-M  'Pnma'
_cell_length_a       5.26139
_cell_length_b       5.64056
_cell_length_c       7.60209
_cell_angle_alpha    90
_cell_angle_beta     90
_cell_angle_gamma    90

_symmetry_Int_Tables_number  62
_chemical_formula_structural  DyVO3
_chemical_formula_sum  Dy4V4O2
_cell_volume  225.60857580050026
_cell_formula_units_Z  4
loop_
  _symmetry_equiv_pos_site_id
 _symmetry_equiv_pos_as_xyz
 1  'x, y, z'
loop_
 _atom_site_type_symbol
 _atom_site_label
 _atom_site_symmetry_multiplicity
 _atom_site_fract_x
 _atom_site_fract_y
 _atom_site_fract_z
 _atom_site_fract_occupancy
 Dy  Dy1  1  0.02004  0.07096  0.75000  1
 Dy  Dy2  1  0.52004  0.42904  0.25000  1
 Dy  Dy3  1  0.47996  0.57096  0.75000  1
 Dy  Dy4  1  0.97996  0.92904  0.25000  1
 O  O1  1  0.69043  0.69625  0.44391  1
 O  O2  1  0.38797  0.03963  0.25000  1
 O  O3  1  0.80957  0.19625  0.05609  1
 O  O4  1  0.30957  0.30375  0.94391  1
 O  O5  1  0.19043  0.80375  0.55609  1
 O  O6  1  0.80957  0.19625  0.44391  1
 O  O7  1  0.19043  0.80375  0.94391  1
 O  O8  1  0.11203  0.53963  0.25000  1
 O  O9  1  0.30957  0.30375  0.55609  1
 O  O10  1  0.61203  0.96037  0.75000  1
 O  O11  1  0.69043  0.69625  0.05609  1
 O  O12  1  0.88797  0.46037  0.75000  1
 V  V1  1  0.50000  0.00000  0.00000  1
 V  V2  1  0.00000  0.50000  0.00000  1
 V  V3  1  0.00000  0.50000  0.50000  1
 V  V4  1  0.50000  0.00000  0.50000  1
