CIF file written using JARVIS-Tools package.
data_Li2Ge2O5
_symmetry_space_group_name_H-M  'Ccc2'
_cell_length_a       5.00729
_cell_length_b       5.96386
_cell_length_c       8.26837
_cell_angle_alpha    111.14
_cell_angle_beta     90.0011
_cell_angle_gamma    89.997

_symmetry_Int_Tables_number  37
_chemical_formula_structural  Li2Ge2O5
_chemical_formula_sum  Li4Ge4O0
_cell_volume  230.2999434162177
_cell_formula_units_Z  2
loop_
  _symmetry_equiv_pos_site_id
 _symmetry_equiv_pos_as_xyz
 1  'x, y, z'
loop_
 _atom_site_type_symbol
 _atom_site_label
 _atom_site_symmetry_multiplicity
 _atom_site_fract_x
 _atom_site_fract_y
 _atom_site_fract_z
 _atom_site_fract_occupancy
 Ge  Ge1  1  0.10021  0.01366  0.70848  1
 Ge  Ge2  1  0.10022  0.98255  0.29151  1
 Ge  Ge3  1  0.60021  0.30518  0.29152  1
 Ge  Ge4  1  0.60022  0.69103  0.70849  1
 Li  Li1  1  0.60579  0.70347  0.11049  1
 Li  Li2  1  0.10579  0.59298  0.88951  1
 Li  Li3  1  0.10579  0.40322  0.11049  1
 Li  Li4  1  0.60579  0.29273  0.88951  1
 O  O1  1  0.48945  0.40410  0.13143  1
 O  O2  1  0.98945  0.27267  0.86857  1
 O  O3  1  0.98946  0.72355  0.13143  1
 O  O4  1  0.95518  0.24975  0.26897  1
 O  O5  1  0.49872  0.49813  0.50000  1
 O  O6  1  0.45518  0.01545  0.26897  1
 O  O7  1  0.95518  0.74648  0.73103  1
 O  O8  1  0.48946  0.59213  0.86857  1
 O  O9  1  0.45518  0.98078  0.73103  1
 O  O10  1  -0.00128  0.99813  0.50000  1
