CIF file written using JARVIS-Tools package.
data_Na2GeTeO6
_symmetry_space_group_name_H-M  'P-31c'
_cell_length_a       5.17442
_cell_length_b       5.17442
_cell_length_c       10.6277
_cell_angle_alpha    90
_cell_angle_beta     90
_cell_angle_gamma    120

_symmetry_Int_Tables_number  163
_chemical_formula_structural  Na2GeTeO6
_chemical_formula_sum  Na4Ge2Te2O2
_cell_volume  246.4286700025046
_cell_formula_units_Z  2
loop_
  _symmetry_equiv_pos_site_id
 _symmetry_equiv_pos_as_xyz
 1  'x, y, z'
loop_
 _atom_site_type_symbol
 _atom_site_label
 _atom_site_symmetry_multiplicity
 _atom_site_fract_x
 _atom_site_fract_y
 _atom_site_fract_z
 _atom_site_fract_occupancy
 Ge  Ge1  1  0.33333  0.66667  0.75000  1
 Ge  Ge2  1  0.66667  0.33333  0.25000  1
 Na  Na1  1  0.66667  0.33333  0.96155  1
 Na  Na2  1  0.66667  0.33333  0.53845  1
 Na  Na3  1  0.33333  0.66667  0.46155  1
 Na  Na4  1  0.33333  0.66667  0.03845  1
 O  O1  1  0.94645  0.66107  0.14638  1
 O  O2  1  0.66107  0.94645  0.64638  1
 O  O3  1  0.71462  0.05355  0.14638  1
 O  O4  1  0.33893  0.05355  0.35362  1
 O  O5  1  0.33893  0.28538  0.14638  1
 O  O6  1  0.94645  0.28538  0.35362  1
 O  O7  1  0.05355  0.71462  0.64638  1
 O  O8  1  0.66107  0.71462  0.85362  1
 O  O9  1  0.71462  0.66107  0.35362  1
 O  O10  1  0.28538  0.33893  0.64638  1
 O  O11  1  0.05355  0.33893  0.85362  1
 O  O12  1  0.28538  0.94645  0.85362  1
 Te  Te1  1  0.00000  0.00000  0.75000  1
 Te  Te2  1  0.00000  0.00000  0.25000  1
