CIF file written using JARVIS-Tools package.
data_TaGaO4
_symmetry_space_group_name_H-M  'Pna2_1'
_cell_length_a       5.00512
_cell_length_b       5.62634
_cell_length_c       9.33529
_cell_angle_alpha    90
_cell_angle_beta     90
_cell_angle_gamma    90

_symmetry_Int_Tables_number  33
_chemical_formula_structural  TaGaO4
_chemical_formula_sum  Ta4Ga4O6
_cell_volume  262.886724045731
_cell_formula_units_Z  4
loop_
  _symmetry_equiv_pos_site_id
 _symmetry_equiv_pos_as_xyz
 1  'x, y, z'
loop_
 _atom_site_type_symbol
 _atom_site_label
 _atom_site_symmetry_multiplicity
 _atom_site_fract_x
 _atom_site_fract_y
 _atom_site_fract_z
 _atom_site_fract_occupancy
 Ga  Ga1  1  0.24553  0.43317  0.37894  1
 Ga  Ga2  1  0.74553  0.56683  0.62106  1
 Ga  Ga3  1  0.74553  0.06683  0.87894  1
 Ga  Ga4  1  0.24553  0.93317  0.12106  1
 O  O1  1  0.07645  0.12336  0.76241  1
 O  O2  1  0.07663  0.64673  0.24058  1
 O  O3  1  0.57645  0.87664  0.23759  1
 O  O4  1  0.07663  0.14673  0.25942  1
 O  O5  1  0.42189  0.63742  0.00856  1
 O  O6  1  0.42189  0.13742  0.49144  1
 O  O7  1  0.91725  0.35977  0.48728  1
 O  O8  1  0.57645  0.37664  0.26241  1
 O  O9  1  0.41725  0.64023  0.51272  1
 O  O10  1  0.91725  0.85977  0.01272  1
 O  O11  1  0.57663  0.85327  0.74058  1
 O  O12  1  0.92189  0.86258  0.50856  1
 O  O13  1  0.57663  0.35327  0.75942  1
 O  O14  1  0.41725  0.14023  0.98728  1
 O  O15  1  0.92189  0.36258  0.99144  1
 O  O16  1  0.07645  0.62336  0.73759  1
 Ta  Ta1  1  0.26226  0.41697  0.87304  1
 Ta  Ta2  1  0.26226  0.91697  0.62696  1
 Ta  Ta3  1  0.76226  0.08303  0.37304  1
 Ta  Ta4  1  0.76226  0.58303  0.12696  1
