CIF file written using JARVIS-Tools package.
data_Na3SiSbCO7
_symmetry_space_group_name_H-M  'P2_1/m'
_cell_length_a       5.1017
_cell_length_b       6.96547
_cell_length_c       9.50817
_cell_angle_alpha    90
_cell_angle_beta     92.5078
_cell_angle_gamma    90

_symmetry_Int_Tables_number  11
_chemical_formula_structural  Na3SiSbCO7
_chemical_formula_sum  Na6Si2Sb2C2O4
_cell_volume  337.55651401383324
_cell_formula_units_Z  2
loop_
  _symmetry_equiv_pos_site_id
 _symmetry_equiv_pos_as_xyz
 1  'x, y, z'
loop_
 _atom_site_type_symbol
 _atom_site_label
 _atom_site_symmetry_multiplicity
 _atom_site_fract_x
 _atom_site_fract_y
 _atom_site_fract_z
 _atom_site_fract_occupancy
 C  C1  1  0.72376  0.75000  0.04991  1
 C  C2  1  0.27624  0.25000  0.95009  1
 Na  Na1  1  0.78396  0.25000  0.09633  1
 Na  Na2  1  0.24807  0.00188  0.24997  1
 Na  Na3  1  0.24807  0.49812  0.24997  1
 Na  Na4  1  0.75193  0.50188  0.75003  1
 Na  Na5  1  0.75193  0.99812  0.75003  1
 Na  Na6  1  0.21604  0.75000  0.90367  1
 O  O1  1  0.06643  0.25000  0.86515  1
 O  O2  1  0.93357  0.75000  0.13485  1
 O  O3  1  0.49255  0.75000  0.10004  1
 O  O4  1  0.81102  0.06243  0.31705  1
 O  O5  1  0.81102  0.43757  0.31705  1
 O  O6  1  0.24767  0.25000  0.08480  1
 O  O7  1  0.14519  0.75000  0.42783  1
 O  O8  1  0.85481  0.25000  0.57217  1
 O  O9  1  0.50745  0.25000  0.89996  1
 O  O10  1  0.18898  0.56243  0.68295  1
 O  O11  1  0.18898  0.93757  0.68295  1
 O  O12  1  0.39651  0.25000  0.41778  1
 O  O13  1  0.60349  0.75000  0.58222  1
 O  O14  1  0.75233  0.75000  0.91520  1
 Sb  Sb1  1  0.75343  0.75000  0.36402  1
 Sb  Sb2  1  0.24657  0.25000  0.63598  1
 Si  Si1  1  0.27978  0.75000  0.59237  1
 Si  Si2  1  0.72022  0.25000  0.40763  1
