CIF file written using JARVIS-Tools package.
data_UReB3
_symmetry_space_group_name_H-M  'P6_3/mmc'
_cell_length_a       5.0844
_cell_length_b       5.0844
_cell_length_c       5.1285
_cell_angle_alpha    90
_cell_angle_beta     90
_cell_angle_gamma    120

_symmetry_Int_Tables_number  194
_chemical_formula_structural  UReB3
_chemical_formula_sum  U2Re2B6
_cell_volume  114.81549743250922
_cell_formula_units_Z  2
loop_
  _symmetry_equiv_pos_site_id
 _symmetry_equiv_pos_as_xyz
 1  'x, y, z'
loop_
 _atom_site_type_symbol
 _atom_site_label
 _atom_site_symmetry_multiplicity
 _atom_site_fract_x
 _atom_site_fract_y
 _atom_site_fract_z
 _atom_site_fract_occupancy
 B  B1  1  0.55885  0.77942  0.25000  1
 B  B2  1  0.77942  0.22058  0.75000  1
 B  B3  1  0.77942  0.55885  0.75000  1
 B  B4  1  0.22058  0.44115  0.25000  1
 B  B5  1  0.44115  0.22058  0.75000  1
 B  B6  1  0.22058  0.77942  0.25000  1
 Re  Re1  1  0.00000  0.00000  0.50000  1
 Re  Re2  1  0.00000  0.00000  0.00000  1
 U  U1  1  0.66667  0.33333  0.25000  1
 U  U2  1  0.33333  0.66667  0.75000  1
