CIF file written using JARVIS-Tools package.
data_KTe3O6F
_symmetry_space_group_name_H-M  'R-3'
_cell_length_a       7.14975
_cell_length_b       7.14974
_cell_length_c       7.14975
_cell_angle_alpha    84.2244
_cell_angle_beta     84.2244
_cell_angle_gamma    84.2244

_symmetry_Int_Tables_number  148
_chemical_formula_structural  KTe3O6F
_chemical_formula_sum  K2Te6O2F2
_cell_volume  360.2704208459799
_cell_formula_units_Z  2
loop_
  _symmetry_equiv_pos_site_id
 _symmetry_equiv_pos_as_xyz
 1  'x, y, z'
loop_
 _atom_site_type_symbol
 _atom_site_label
 _atom_site_symmetry_multiplicity
 _atom_site_fract_x
 _atom_site_fract_y
 _atom_site_fract_z
 _atom_site_fract_occupancy
 F  F1  1  0.65109  0.65109  0.65109  1
 F  F2  1  0.34891  0.34891  0.34891  1
 K  K1  1  0.84996  0.84996  0.84996  1
 K  K2  1  0.15004  0.15004  0.15004  1
 O  O1  1  0.95186  0.45024  0.34480  1
 O  O2  1  0.85575  0.34381  0.94078  1
 O  O3  1  0.04814  0.54976  0.65520  1
 O  O4  1  0.65520  0.04814  0.54976  1
 O  O5  1  0.54976  0.65520  0.04814  1
 O  O6  1  0.34381  0.94078  0.85575  1
 O  O7  1  0.45024  0.34480  0.95186  1
 O  O8  1  0.94078  0.85575  0.34381  1
 O  O9  1  0.05922  0.14425  0.65619  1
 O  O10  1  0.65619  0.05922  0.14425  1
 O  O11  1  0.14425  0.65619  0.05922  1
 O  O12  1  0.34480  0.95186  0.45024  1
 Te  Te1  1  0.64565  0.87377  0.36176  1
 Te  Te2  1  0.63824  0.35435  0.12623  1
 Te  Te3  1  0.12623  0.63824  0.35435  1
 Te  Te4  1  0.36176  0.64565  0.87377  1
 Te  Te5  1  0.35435  0.12623  0.63824  1
 Te  Te6  1  0.87377  0.36176  0.64565  1
