CIF file written using JARVIS-Tools package.
data_H4INO4
_symmetry_space_group_name_H-M  'I4_1/a'
_cell_length_a       6.06064
_cell_length_b       6.06064
_cell_length_c       7.50008
_cell_angle_alpha    113.831
_cell_angle_beta     113.831
_cell_angle_gamma    90

_symmetry_Int_Tables_number  88
_chemical_formula_structural  H4INO4
_chemical_formula_sum  H8I2N2O8
_cell_volume  226.08575411477275
_cell_formula_units_Z  2
loop_
  _symmetry_equiv_pos_site_id
 _symmetry_equiv_pos_as_xyz
 1  'x, y, z'
loop_
 _atom_site_type_symbol
 _atom_site_label
 _atom_site_symmetry_multiplicity
 _atom_site_fract_x
 _atom_site_fract_y
 _atom_site_fract_z
 _atom_site_fract_occupancy
 H  H1  1  0.64162  0.05930  0.34896  1
 H  H2  1  0.28966  0.14162  0.84896  1
 H  H3  1  0.55930  0.20734  0.84896  1
 H  H4  1  0.70734  0.78966  0.34896  1
 H  H5  1  0.35838  0.94070  0.65104  1
 H  H6  1  0.71034  0.85838  0.15104  1
 H  H7  1  0.44070  0.79266  0.15104  1
 H  H8  1  0.29266  0.21034  0.65104  1
 I  I1  1  0.12500  0.37500  0.25000  1
 I  I2  1  0.87500  0.62500  0.75000  1
 N  N1  1  0.37500  0.12500  0.75000  1
 N  N2  1  0.62500  0.87500  0.25000  1
 O  O1  1  0.92867  0.74953  0.58695  1
 O  O2  1  0.65829  0.33743  0.58695  1
 O  O3  1  0.34171  0.66257  0.41305  1
 O  O4  1  0.07133  0.25047  0.41305  1
 O  O5  1  0.75047  0.84171  0.91305  1
 O  O6  1  0.83743  0.42867  0.08695  1
 O  O7  1  0.24953  0.15829  0.08695  1
 O  O8  1  0.16257  0.57133  0.91305  1
