CIF file written using JARVIS-Tools package.
data_Ca2BN2F
_symmetry_space_group_name_H-M  'Pnma'
_cell_length_a       3.65125
_cell_length_b       9.18174
_cell_length_c       9.98752
_cell_angle_alpha    90
_cell_angle_beta     90
_cell_angle_gamma    90

_symmetry_Int_Tables_number  62
_chemical_formula_structural  Ca2BN2F
_chemical_formula_sum  Ca8B4N8F4
_cell_volume  334.8298313453736
_cell_formula_units_Z  4
loop_
  _symmetry_equiv_pos_site_id
 _symmetry_equiv_pos_as_xyz
 1  'x, y, z'
loop_
 _atom_site_type_symbol
 _atom_site_label
 _atom_site_symmetry_multiplicity
 _atom_site_fract_x
 _atom_site_fract_y
 _atom_site_fract_z
 _atom_site_fract_occupancy
 B  B1  1  0.75000  0.26457  0.67583  1
 B  B2  1  0.25000  0.73543  0.32417  1
 B  B3  1  0.75000  0.76457  0.82417  1
 B  B4  1  0.25000  0.23543  0.17583  1
 Ca  Ca1  1  0.75000  0.97462  0.15596  1
 Ca  Ca2  1  0.25000  0.02538  0.84404  1
 Ca  Ca3  1  0.25000  0.67627  0.02579  1
 Ca  Ca4  1  0.25000  0.52538  0.65596  1
 Ca  Ca5  1  0.75000  0.32373  0.97421  1
 Ca  Ca6  1  0.25000  0.17627  0.47421  1
 Ca  Ca7  1  0.75000  0.82373  0.52579  1
 Ca  Ca8  1  0.75000  0.47462  0.34404  1
 F  F1  1  0.75000  0.54062  0.10623  1
 F  F2  1  0.25000  0.45938  0.89377  1
 F  F3  1  0.25000  0.95938  0.60623  1
 F  F4  1  0.75000  0.04062  0.39377  1
 N  N1  1  0.75000  0.34654  0.56349  1
 N  N2  1  0.25000  0.32142  0.28258  1
 N  N3  1  0.75000  0.67858  0.71742  1
 N  N4  1  0.25000  0.82142  0.21742  1
 N  N5  1  0.75000  0.84654  0.93651  1
 N  N6  1  0.25000  0.65346  0.43651  1
 N  N7  1  0.25000  0.15346  0.06349  1
 N  N8  1  0.75000  0.17858  0.78258  1
