CIF file written using JARVIS-Tools package.
data_B2Mo
_symmetry_space_group_name_H-M  'R-3m'
_cell_length_a       7.24607
_cell_length_b       7.24607
_cell_length_c       7.24607
_cell_angle_alpha    24.047
_cell_angle_beta     24.047
_cell_angle_gamma    24.0471

_symmetry_Int_Tables_number  166
_chemical_formula_structural  B2Mo
_chemical_formula_sum  B4Mo2
_cell_volume  55.51244051846291
_cell_formula_units_Z  2
loop_
  _symmetry_equiv_pos_site_id
 _symmetry_equiv_pos_as_xyz
 1  'x, y, z'
loop_
 _atom_site_type_symbol
 _atom_site_label
 _atom_site_symmetry_multiplicity
 _atom_site_fract_x
 _atom_site_fract_y
 _atom_site_fract_z
 _atom_site_fract_occupancy
 B  B1  1  0.81876  0.81876  0.81876  1
 B  B2  1  0.18124  0.18124  0.18124  1
 B  B3  1  0.33208  0.33208  0.33208  1
 B  B4  1  0.66792  0.66792  0.66792  1
 Mo  Mo1  1  0.92379  0.92379  0.92379  1
 Mo  Mo2  1  0.07621  0.07621  0.07621  1
