CIF file written using JARVIS-Tools package.
data_Si3N4
_symmetry_space_group_name_H-M  'I-43d'
_cell_length_a       5.6262
_cell_length_b       5.6262
_cell_length_c       5.6262
_cell_angle_alpha    109.471
_cell_angle_beta     109.471
_cell_angle_gamma    109.471

_symmetry_Int_Tables_number  220
_chemical_formula_structural  Si3N4
_chemical_formula_sum  Si6N8
_cell_volume  137.0954761439295
_cell_formula_units_Z  2
loop_
  _symmetry_equiv_pos_site_id
 _symmetry_equiv_pos_as_xyz
 1  'x, y, z'
loop_
 _atom_site_type_symbol
 _atom_site_label
 _atom_site_symmetry_multiplicity
 _atom_site_fract_x
 _atom_site_fract_y
 _atom_site_fract_z
 _atom_site_fract_occupancy
 N  N1  1  0.06238  0.06238  0.06238  1
 N  N2  1  0.93762  0.50000  0.00000  1
 N  N3  1  0.50000  0.00000  0.93762  1
 N  N4  1  -0.00000  0.93762  0.50000  1
 N  N5  1  0.50000  0.00000  0.43762  1
 N  N6  1  -0.00000  0.43762  0.50000  1
 N  N7  1  0.56238  0.56238  0.56238  1
 N  N8  1  0.43762  0.50000  0.00000  1
 Si  Si1  1  0.75000  0.37500  0.62500  1
 Si  Si2  1  0.12500  0.87500  0.25000  1
 Si  Si3  1  0.37500  0.62500  0.75000  1
 Si  Si4  1  0.62500  0.75000  0.37500  1
 Si  Si5  1  0.87500  0.25000  0.12500  1
 Si  Si6  1  0.25000  0.12500  0.87500  1
