CIF file written using JARVIS-Tools package.
data_K6CoS4
_symmetry_space_group_name_H-M  'P6_3mc'
_cell_length_a       9.72156
_cell_length_b       9.72156
_cell_length_c       7.56576
_cell_angle_alpha    90
_cell_angle_beta     90
_cell_angle_gamma    120

_symmetry_Int_Tables_number  186
_chemical_formula_structural  K6CoS4
_chemical_formula_sum  K2Co2S8
_cell_volume  619.2346956315948
_cell_formula_units_Z  2
loop_
  _symmetry_equiv_pos_site_id
 _symmetry_equiv_pos_as_xyz
 1  'x, y, z'
loop_
 _atom_site_type_symbol
 _atom_site_label
 _atom_site_symmetry_multiplicity
 _atom_site_fract_x
 _atom_site_fract_y
 _atom_site_fract_z
 _atom_site_fract_occupancy
 Co  Co1  1  0.66667  0.33333  0.25092  1
 Co  Co2  1  0.33333  0.66667  0.75092  1
 K  K1  1  0.47166  0.52834  0.36506  1
 K  K2  1  0.14606  0.29213  0.04578  1
 K  K3  1  0.47166  0.94332  0.36506  1
 K  K4  1  0.05668  0.52834  0.36506  1
 K  K5  1  0.29213  0.14606  0.54578  1
 K  K6  1  0.94332  0.47166  0.86506  1
 K  K7  1  0.52834  0.05668  0.86506  1
 K  K8  1  0.14606  0.85394  0.04578  1
 K  K9  1  0.70787  0.85394  0.04578  1
 K  K10  1  0.85394  0.70787  0.54578  1
 K  K11  1  0.52834  0.47166  0.86506  1
 K  K12  1  0.85394  0.14606  0.54578  1
 S  S1  1  0.39934  0.19967  0.15365  1
 S  S2  1  0.33333  0.66667  0.06270  1
 S  S3  1  0.60066  0.80033  0.65365  1
 S  S4  1  0.80033  0.60066  0.15365  1
 S  S5  1  0.80033  0.19967  0.15365  1
 S  S6  1  0.19967  0.80033  0.65365  1
 S  S7  1  0.19967  0.39934  0.65365  1
 S  S8  1  0.66667  0.33333  0.56270  1
