CIF file written using JARVIS-Tools package.
data_Mg2VBiO6
_symmetry_space_group_name_H-M  'Cmcm'
_cell_length_a       5.49788
_cell_length_b       7.35008
_cell_length_c       7.35008
_cell_angle_alpha    114.394
_cell_angle_beta     90
_cell_angle_gamma    90

_symmetry_Int_Tables_number  63
_chemical_formula_structural  Mg2VBiO6
_chemical_formula_sum  Mg4V2Bi2O2
_cell_volume  270.49999683550163
_cell_formula_units_Z  2
loop_
  _symmetry_equiv_pos_site_id
 _symmetry_equiv_pos_as_xyz
 1  'x, y, z'
loop_
 _atom_site_type_symbol
 _atom_site_label
 _atom_site_symmetry_multiplicity
 _atom_site_fract_x
 _atom_site_fract_y
 _atom_site_fract_z
 _atom_site_fract_occupancy
 Bi  Bi1  1  0.75000  0.59419  0.40581  1
 Bi  Bi2  1  0.25000  0.40581  0.59419  1
 Mg  Mg1  1  0.25000  0.27970  0.10410  1
 Mg  Mg2  1  0.75000  0.72029  0.89590  1
 Mg  Mg3  1  0.25000  0.89590  0.72029  1
 Mg  Mg4  1  0.75000  0.10410  0.27971  1
 O  O1  1  0.25000  0.90045  0.45203  1
 O  O2  1  0.25000  0.54797  0.09955  1
 O  O3  1  0.75000  0.45203  0.90045  1
 O  O4  1  0.99058  0.88459  0.11541  1
 O  O5  1  0.49058  0.11541  0.88459  1
 O  O6  1  0.00942  0.11541  0.88459  1
 O  O7  1  0.00000  0.32924  0.32924  1
 O  O8  1  0.75000  0.09955  0.54797  1
 O  O9  1  0.50000  0.32924  0.32924  1
 O  O10  1  0.50000  0.67076  0.67076  1
 O  O11  1  0.50942  0.88459  0.11541  1
 O  O12  1  0.00000  0.67076  0.67076  1
 V  V1  1  0.75000  0.19743  0.80257  1
 V  V2  1  0.25000  0.80257  0.19743  1
