CIF file written using JARVIS-Tools package.
data_Tm2Mn2O7
_symmetry_space_group_name_H-M  'Fd-3m'
_cell_length_a       6.97268
_cell_length_b       6.97268
_cell_length_c       6.97268
_cell_angle_alpha    60
_cell_angle_beta     60
_cell_angle_gamma    60

_symmetry_Int_Tables_number  227
_chemical_formula_structural  Tm2Mn2O7
_chemical_formula_sum  Tm4Mn4O4
_cell_volume  239.70832341504823
_cell_formula_units_Z  2
loop_
  _symmetry_equiv_pos_site_id
 _symmetry_equiv_pos_as_xyz
 1  'x, y, z'
loop_
 _atom_site_type_symbol
 _atom_site_label
 _atom_site_symmetry_multiplicity
 _atom_site_fract_x
 _atom_site_fract_y
 _atom_site_fract_z
 _atom_site_fract_occupancy
 Mn  Mn1  1  0.00000  0.00000  0.00000  1
 Mn  Mn2  1  0.50000  -0.00000  0.00000  1
 Mn  Mn3  1  -0.00000  0.00000  0.50000  1
 Mn  Mn4  1  -0.00000  0.50000  0.00000  1
 O  O1  1  0.33044  0.33044  0.91956  1
 O  O2  1  0.66956  0.08044  0.08044  1
 O  O3  1  0.91956  0.33044  0.33044  1
 O  O4  1  0.08044  0.66956  0.66956  1
 O  O5  1  0.66956  0.66956  0.08044  1
 O  O6  1  0.37500  0.37500  0.37500  1
 O  O7  1  0.08044  0.08044  0.66956  1
 O  O8  1  0.08044  0.66956  0.08044  1
 O  O9  1  0.33044  0.91956  0.91956  1
 O  O10  1  0.91956  0.91956  0.33044  1
 O  O11  1  0.66956  0.08044  0.66956  1
 O  O12  1  0.62500  0.62500  0.62500  1
 O  O13  1  0.91956  0.33044  0.91956  1
 O  O14  1  0.33044  0.91956  0.33044  1
 Tm  Tm1  1  0.50000  0.50000  0.50000  1
 Tm  Tm2  1  -0.00000  0.50000  0.50000  1
 Tm  Tm3  1  0.50000  0.50000  0.00000  1
 Tm  Tm4  1  0.50000  0.00000  0.50000  1
