CIF file written using JARVIS-Tools package.
data_Li2FeSiO4
_symmetry_space_group_name_H-M  'I-42m'
_cell_length_a       4.41283
_cell_length_b       5.27542
_cell_length_c       4.41283
_cell_angle_alpha    65.2762
_cell_angle_beta     90
_cell_angle_gamma    114.724

_symmetry_Int_Tables_number  121
_chemical_formula_structural  Li2FeSiO4
_chemical_formula_sum  Li2FeSiO4
_cell_volume  82.83144790039869
_cell_formula_units_Z  1
loop_
  _symmetry_equiv_pos_site_id
 _symmetry_equiv_pos_as_xyz
 1  'x, y, z'
loop_
 _atom_site_type_symbol
 _atom_site_label
 _atom_site_symmetry_multiplicity
 _atom_site_fract_x
 _atom_site_fract_y
 _atom_site_fract_z
 _atom_site_fract_occupancy
 Fe  Fe1  1  0.00000  0.00000  0.00000  1
 Li  Li1  1  0.25000  0.50000  0.25000  1
 Li  Li2  1  0.75000  0.50000  0.75000  1
 O  O1  1  0.39556  0.22477  0.17079  1
 O  O2  1  0.82921  0.22477  0.60444  1
 O  O3  1  0.60444  0.77523  0.39556  1
 O  O4  1  0.17079  0.77523  0.82921  1
 Si  Si1  1  0.50000  0.00000  0.50000  1
