CIF file written using JARVIS-Tools package.
data_CaSnO2
_symmetry_space_group_name_H-M  'P-1'
_cell_length_a       3.49541
_cell_length_b       9.11461
_cell_length_c       10.2297
_cell_angle_alpha    88.8351
_cell_angle_beta     85.4877
_cell_angle_gamma    75.0274

_symmetry_Int_Tables_number  2
_chemical_formula_structural  CaSnO2
_chemical_formula_sum  Ca4Sn4O8
_cell_volume  313.87112720232284
_cell_formula_units_Z  4
loop_
  _symmetry_equiv_pos_site_id
 _symmetry_equiv_pos_as_xyz
 1  'x, y, z'
loop_
 _atom_site_type_symbol
 _atom_site_label
 _atom_site_symmetry_multiplicity
 _atom_site_fract_x
 _atom_site_fract_y
 _atom_site_fract_z
 _atom_site_fract_occupancy
 Ca  Ca1  1  0.35703  0.85466  0.93484  1
 Ca  Ca2  1  0.64702  0.11713  0.08525  1
 Ca  Ca3  1  0.96035  0.79291  0.27187  1
 Ca  Ca4  1  0.04361  0.17889  0.74822  1
 O  O1  1  0.27621  0.32195  0.25179  1
 O  O2  1  0.44728  0.33471  0.72766  1
 O  O3  1  0.55668  0.63708  0.29243  1
 O  O4  1  0.72771  0.64985  0.76828  1
 O  O5  1  0.17805  0.11324  0.95170  1
 O  O6  1  0.10687  0.91546  0.70707  1
 O  O7  1  0.82600  0.85855  0.06838  1
 O  O8  1  0.89706  0.05634  0.31302  1
 Sn  Sn1  1  0.28458  0.51446  0.84795  1
 Sn  Sn2  1  0.69980  0.80676  0.61316  1
 Sn  Sn3  1  0.30412  0.16505  0.40692  1
 Sn  Sn4  1  0.71935  0.45734  0.17213  1
