CIF file written using JARVIS-Tools package.
data_NaBPt3
_symmetry_space_group_name_H-M  'P6/mmm'
_cell_length_a       5.59927
_cell_length_b       5.59927
_cell_length_c       5.57072
_cell_angle_alpha    90
_cell_angle_beta     90
_cell_angle_gamma    120

_symmetry_Int_Tables_number  191
_chemical_formula_structural  NaBPt3
_chemical_formula_sum  Na2B2Pt6
_cell_volume  151.25295400146723
_cell_formula_units_Z  2
loop_
  _symmetry_equiv_pos_site_id
 _symmetry_equiv_pos_as_xyz
 1  'x, y, z'
loop_
 _atom_site_type_symbol
 _atom_site_label
 _atom_site_symmetry_multiplicity
 _atom_site_fract_x
 _atom_site_fract_y
 _atom_site_fract_z
 _atom_site_fract_occupancy
 B  B1  1  0.66667  0.33333  0.50000  1
 B  B2  1  0.33333  0.66667  0.50000  1
 Na  Na1  1  0.00000  0.00000  0.50000  1
 Na  Na2  1  0.00000  0.00000  0.00000  1
 Pt  Pt1  1  0.50000  -0.00000  0.24201  1
 Pt  Pt2  1  -0.00000  0.50000  0.24201  1
 Pt  Pt3  1  0.50000  0.50000  0.24201  1
 Pt  Pt4  1  -0.00000  0.50000  0.75799  1
 Pt  Pt5  1  0.50000  -0.00000  0.75799  1
 Pt  Pt6  1  0.50000  0.50000  0.75799  1
