CIF file written using JARVIS-Tools package.
data_SmNiC2
_symmetry_space_group_name_H-M  'Amm2'
_cell_length_a       3.73101
_cell_length_b       3.80183
_cell_length_c       3.80183
_cell_angle_alpha    106.847
_cell_angle_beta     90
_cell_angle_gamma    90

_symmetry_Int_Tables_number  38
_chemical_formula_structural  SmNiC2
_chemical_formula_sum  SmNiC2
_cell_volume  51.61322902573957
_cell_formula_units_Z  1
loop_
  _symmetry_equiv_pos_site_id
 _symmetry_equiv_pos_as_xyz
 1  'x, y, z'
loop_
 _atom_site_type_symbol
 _atom_site_label
 _atom_site_symmetry_multiplicity
 _atom_site_fract_x
 _atom_site_fract_y
 _atom_site_fract_z
 _atom_site_fract_occupancy
 C  C1  1  0.50000  0.84819  0.45159  1
 C  C2  1  0.50000  0.54841  0.15181  1
 Ni  Ni1  1  0.50000  0.38714  0.61286  1
 Sm  Sm1  1  0.00000  0.00126  0.99874  1
