CIF file written using JARVIS-Tools package.
data_Li4FeCo3O8
_symmetry_space_group_name_H-M  'P1'
_cell_length_a       5.073
_cell_length_b       5.36881
_cell_length_c       6.35512
_cell_angle_alpha    89.3364
_cell_angle_beta     90.2284
_cell_angle_gamma    89.717

_symmetry_Int_Tables_number  1
_chemical_formula_structural  Li4FeCo3O8
_chemical_formula_sum  Li4FeCo3O8
_cell_volume  173.07276277013182
_cell_formula_units_Z  1
loop_
  _symmetry_equiv_pos_site_id
 _symmetry_equiv_pos_as_xyz
 1  'x, y, z'
loop_
 _atom_site_type_symbol
 _atom_site_label
 _atom_site_symmetry_multiplicity
 _atom_site_fract_x
 _atom_site_fract_y
 _atom_site_fract_z
 _atom_site_fract_occupancy
 Co  Co1  1  -0.00024  0.08164  0.13020  1
 Co  Co2  1  0.50256  0.41783  0.62468  1
 Co  Co3  1  0.00280  0.58224  0.37223  1
 Fe  Fe1  1  0.50071  0.91860  0.87494  1
 Li  Li1  1  0.99780  0.08548  0.62366  1
 Li  Li2  1  0.49823  0.41297  0.12463  1
 Li  Li3  1  0.99906  0.58590  0.87552  1
 Li  Li4  1  0.49747  0.91493  0.37705  1
 O  O1  1  0.37319  0.06700  0.11762  1
 O  O2  1  0.38566  0.08809  0.62983  1
 O  O3  1  0.89130  0.41041  0.13592  1
 O  O4  1  0.86466  0.43955  0.61244  1
 O  O5  1  0.36643  0.56375  0.38421  1
 O  O6  1  0.38801  0.58885  0.86576  1
 O  O7  1  0.88837  0.90936  0.36853  1
 O  O8  1  0.87039  0.93341  0.88279  1
