CIF file written using JARVIS-Tools package.
data_ZnP2
_symmetry_space_group_name_H-M  'P2_1/c'
_cell_length_a       7.35948
_cell_length_b       7.66126
_cell_length_c       8.93952
_cell_angle_alpha    103.318
_cell_angle_beta     90
_cell_angle_gamma    90

_symmetry_Int_Tables_number  14
_chemical_formula_structural  ZnP2
_chemical_formula_sum  Zn8P6
_cell_volume  490.48113487882387
_cell_formula_units_Z  8
loop_
  _symmetry_equiv_pos_site_id
 _symmetry_equiv_pos_as_xyz
 1  'x, y, z'
loop_
 _atom_site_type_symbol
 _atom_site_label
 _atom_site_symmetry_multiplicity
 _atom_site_fract_x
 _atom_site_fract_y
 _atom_site_fract_z
 _atom_site_fract_occupancy
 P  P1  1  0.25331  0.14565  0.08173  1
 P  P2  1  0.91813  0.02278  0.61717  1
 P  P3  1  0.51137  0.31720  0.76691  1
 P  P4  1  0.48465  0.19461  0.24367  1
 P  P5  1  0.98863  0.81720  0.76691  1
 P  P6  1  0.75331  0.35435  0.91827  1
 P  P7  1  0.41813  0.47722  0.38283  1
 P  P8  1  0.48863  0.68280  0.23309  1
 P  P9  1  0.74669  0.85435  0.91827  1
 P  P10  1  0.08187  0.97722  0.38283  1
 P  P11  1  0.98465  0.30539  0.75633  1
 P  P12  1  0.51535  0.80539  0.75633  1
 P  P13  1  0.24669  0.64565  0.08173  1
 P  P14  1  0.01137  0.18280  0.23309  1
 P  P15  1  0.01535  0.69461  0.24367  1
 P  P16  1  0.58187  0.52278  0.61717  1
 Zn  Zn1  1  0.25960  0.85293  0.92270  1
 Zn  Zn2  1  0.24040  0.35293  0.92270  1
 Zn  Zn3  1  0.75960  0.64707  0.07730  1
 Zn  Zn4  1  0.58518  0.02476  0.61300  1
 Zn  Zn5  1  0.74040  0.14707  0.07730  1
 Zn  Zn6  1  0.91482  0.52476  0.61300  1
 Zn  Zn7  1  0.41482  0.97524  0.38700  1
 Zn  Zn8  1  0.08518  0.47524  0.38700  1
