CIF file written using JARVIS-Tools package.
data_Tm6WO12
_symmetry_space_group_name_H-M  'R-3'
_cell_length_a       6.36248
_cell_length_b       6.36248
_cell_length_c       6.36248
_cell_angle_alpha    98.7588
_cell_angle_beta     98.7588
_cell_angle_gamma    98.7589

_symmetry_Int_Tables_number  148
_chemical_formula_structural  Tm6WO12
_chemical_formula_sum  Tm6WO2
_cell_volume  247.4963357845893
_cell_formula_units_Z  1
loop_
  _symmetry_equiv_pos_site_id
 _symmetry_equiv_pos_as_xyz
 1  'x, y, z'
loop_
 _atom_site_type_symbol
 _atom_site_label
 _atom_site_symmetry_multiplicity
 _atom_site_fract_x
 _atom_site_fract_y
 _atom_site_fract_z
 _atom_site_fract_occupancy
 O  O1  1  0.92083  0.70029  0.03520  1
 O  O2  1  0.03520  0.92083  0.70029  1
 O  O3  1  0.29971  0.96480  0.07917  1
 O  O4  1  0.70029  0.03520  0.92083  1
 O  O5  1  0.57045  0.82271  0.41106  1
 O  O6  1  0.17729  0.58894  0.42955  1
 O  O7  1  0.41106  0.57045  0.82271  1
 O  O8  1  0.58894  0.42955  0.17729  1
 O  O9  1  0.07917  0.29971  0.96480  1
 O  O10  1  0.96480  0.07917  0.29971  1
 O  O11  1  0.82271  0.41106  0.57045  1
 O  O12  1  0.42955  0.17729  0.58894  1
 Tm  Tm1  1  0.61134  0.14378  0.31751  1
 Tm  Tm2  1  0.68249  0.38866  0.85622  1
 Tm  Tm3  1  0.85622  0.68249  0.38866  1
 Tm  Tm4  1  0.14378  0.31751  0.61134  1
 Tm  Tm5  1  0.31751  0.61134  0.14378  1
 Tm  Tm6  1  0.38866  0.85622  0.68249  1
 W  W1  1  0.00000  0.00000  0.00000  1
