CIF file written using JARVIS-Tools package.
data_ScAgP2S6
_symmetry_space_group_name_H-M  'P-31c'
_cell_length_a       6.19676
_cell_length_b       6.19676
_cell_length_c       12.8988
_cell_angle_alpha    90
_cell_angle_beta     90
_cell_angle_gamma    120

_symmetry_Int_Tables_number  163
_chemical_formula_structural  ScAgP2S6
_chemical_formula_sum  Sc2Ag2P4S2
_cell_volume  428.9516432199521
_cell_formula_units_Z  2
loop_
  _symmetry_equiv_pos_site_id
 _symmetry_equiv_pos_as_xyz
 1  'x, y, z'
loop_
 _atom_site_type_symbol
 _atom_site_label
 _atom_site_symmetry_multiplicity
 _atom_site_fract_x
 _atom_site_fract_y
 _atom_site_fract_z
 _atom_site_fract_occupancy
 Ag  Ag1  1  0.33333  0.66667  0.25000  1
 Ag  Ag2  1  0.66667  0.33333  0.75000  1
 P  P1  1  0.66667  0.33333  0.33664  1
 P  P2  1  0.66667  0.33333  0.16336  1
 P  P3  1  0.33333  0.66667  0.66336  1
 P  P4  1  0.33333  0.66667  0.83664  1
 S  S1  1  0.03098  0.69439  0.61976  1
 S  S2  1  0.96902  0.66340  0.11976  1
 S  S3  1  0.69439  0.03098  0.11976  1
 S  S4  1  0.96902  0.30561  0.38024  1
 S  S5  1  0.69439  0.66340  0.38024  1
 S  S6  1  0.33660  0.03098  0.38024  1
 S  S7  1  0.33660  0.30561  0.11976  1
 S  S8  1  0.03098  0.33660  0.88024  1
 S  S9  1  0.66340  0.96902  0.61976  1
 S  S10  1  0.30561  0.96902  0.88024  1
 S  S11  1  0.30561  0.33660  0.61976  1
 S  S12  1  0.66340  0.69439  0.88024  1
 Sc  Sc1  1  0.00000  0.00000  0.75000  1
 Sc  Sc2  1  0.00000  0.00000  0.25000  1
