CIF file written using JARVIS-Tools package.
data_SmGa
_symmetry_space_group_name_H-M  'Cmcm'
_cell_length_a       4.11881
_cell_length_b       4.40681
_cell_length_c       5.95216
_cell_angle_alpha    111.727
_cell_angle_beta     90
_cell_angle_gamma    90

_symmetry_Int_Tables_number  63
_chemical_formula_structural  SmGa
_chemical_formula_sum  Sm2Ga2
_cell_volume  100.36134991426654
_cell_formula_units_Z  2
loop_
  _symmetry_equiv_pos_site_id
 _symmetry_equiv_pos_as_xyz
 1  'x, y, z'
loop_
 _atom_site_type_symbol
 _atom_site_label
 _atom_site_symmetry_multiplicity
 _atom_site_fract_x
 _atom_site_fract_y
 _atom_site_fract_z
 _atom_site_fract_occupancy
 Ga  Ga1  1  0.25000  0.42560  0.85120  1
 Ga  Ga2  1  0.75000  0.57440  0.14880  1
 Sm  Sm1  1  0.25000  0.14018  0.28036  1
 Sm  Sm2  1  0.75000  0.85982  0.71964  1
