CIF file written using JARVIS-Tools package.
data_K3SO4F
_symmetry_space_group_name_H-M  'I4/mcm'
_cell_length_a       7.21924
_cell_length_b       7.21924
_cell_length_c       7.47112
_cell_angle_alpha    118.891
_cell_angle_beta     118.891
_cell_angle_gamma    90

_symmetry_Int_Tables_number  140
_chemical_formula_structural  K3SO4F
_chemical_formula_sum  K6S2O8F2
_cell_volume  284.309561068573
_cell_formula_units_Z  2
loop_
  _symmetry_equiv_pos_site_id
 _symmetry_equiv_pos_as_xyz
 1  'x, y, z'
loop_
 _atom_site_type_symbol
 _atom_site_label
 _atom_site_symmetry_multiplicity
 _atom_site_fract_x
 _atom_site_fract_y
 _atom_site_fract_z
 _atom_site_fract_occupancy
 F  F1  1  0.50000  0.50000  0.00000  1
 F  F2  1  0.00000  0.00000  0.00000  1
 K  K1  1  0.75000  0.75000  0.50000  1
 K  K2  1  0.31149  0.18851  -0.00000  1
 K  K3  1  0.18851  0.68851  -0.00000  1
 K  K4  1  0.68851  0.81149  0.00000  1
 K  K5  1  0.25000  0.25000  0.50000  1
 K  K6  1  0.81149  0.31149  0.00000  1
 O  O1  1  0.94806  0.21120  0.65926  1
 O  O2  1  0.55194  0.05194  0.34074  1
 O  O3  1  0.05194  0.78880  0.34074  1
 O  O4  1  0.28880  0.55194  0.34074  1
 O  O5  1  0.78880  0.28880  0.34074  1
 O  O6  1  0.44806  0.94806  0.65926  1
 O  O7  1  0.21120  0.71120  0.65926  1
 O  O8  1  0.71120  0.44806  0.65926  1
 S  S1  1  0.75000  0.25000  0.50000  1
 S  S2  1  0.25000  0.75000  0.50000  1
