CIF file written using JARVIS-Tools package.
data_BaCaI4
_symmetry_space_group_name_H-M  'P2/m'
_cell_length_a       4.81529
_cell_length_b       7.38123
_cell_length_c       7.85867
_cell_angle_alpha    89.8612
_cell_angle_beta     90.0343
_cell_angle_gamma    90.0536

_symmetry_Int_Tables_number  10
_chemical_formula_structural  BaCaI4
_chemical_formula_sum  BaCaI4
_cell_volume  279.3176552082065
_cell_formula_units_Z  1
loop_
  _symmetry_equiv_pos_site_id
 _symmetry_equiv_pos_as_xyz
 1  'x, y, z'
loop_
 _atom_site_type_symbol
 _atom_site_label
 _atom_site_symmetry_multiplicity
 _atom_site_fract_x
 _atom_site_fract_y
 _atom_site_fract_z
 _atom_site_fract_occupancy
 Ba  Ba1  1  0.51445  0.00310  0.50548  1
 Ca  Ca1  1  0.01462  0.50297  0.00556  1
 I  I1  1  0.01421  0.72669  0.66913  1
 I  I2  1  0.01469  0.27983  0.34235  1
 I  I3  1  0.51504  0.74214  0.14043  1
 I  I4  1  0.51409  0.26377  0.87078  1
