CIF file written using JARVIS-Tools package.
data_SF6
_symmetry_space_group_name_H-M  'P-3m1'
_cell_length_a       8.10294
_cell_length_b       8.10294
_cell_length_c       4.58641
_cell_angle_alpha    90
_cell_angle_beta     90
_cell_angle_gamma    120

_symmetry_Int_Tables_number  164
_chemical_formula_structural  SF6
_chemical_formula_sum  S3F8
_cell_volume  260.7890652067286
_cell_formula_units_Z  3
loop_
  _symmetry_equiv_pos_site_id
 _symmetry_equiv_pos_as_xyz
 1  'x, y, z'
loop_
 _atom_site_type_symbol
 _atom_site_label
 _atom_site_symmetry_multiplicity
 _atom_site_fract_x
 _atom_site_fract_y
 _atom_site_fract_z
 _atom_site_fract_occupancy
 F  F1  1  0.90729  0.09271  0.20047  1
 F  F2  1  0.24059  0.75941  0.35640  1
 F  F3  1  0.24059  0.48118  0.35640  1
 F  F4  1  0.51882  0.75941  0.35640  1
 F  F5  1  0.09271  0.90729  0.79953  1
 F  F6  1  0.09271  0.18542  0.79953  1
 F  F7  1  0.81458  0.90729  0.79953  1
 F  F8  1  0.18542  0.09271  0.20047  1
 F  F9  1  0.90729  0.81458  0.20047  1
 F  F10  1  0.75941  0.51882  0.64360  1
 F  F11  1  0.48118  0.24059  0.64360  1
 F  F12  1  0.42607  0.85215  0.75786  1
 F  F13  1  0.14785  0.57393  0.75786  1
 F  F14  1  0.85215  0.42607  0.24214  1
 F  F15  1  0.57393  0.14785  0.24214  1
 F  F16  1  0.57393  0.42607  0.24214  1
 F  F17  1  0.75941  0.24059  0.64360  1
 F  F18  1  0.42607  0.57393  0.75786  1
 S  S1  1  0.00000  0.00000  0.00000  1
 S  S2  1  0.33333  0.66667  0.55711  1
 S  S3  1  0.66667  0.33333  0.44289  1
