CIF file written using JARVIS-Tools package.
data_Mn4NiO8
_symmetry_space_group_name_H-M  'C2/m'
_cell_length_a       5.84209
_cell_length_b       5.84209
_cell_length_c       5.84543
_cell_angle_alpha    87.8872
_cell_angle_beta     58.842
_cell_angle_gamma    58.7219

_symmetry_Int_Tables_number  12
_chemical_formula_structural  Mn4NiO8
_chemical_formula_sum  Mn4NiO8
_cell_volume  138.39161362101208
_cell_formula_units_Z  1
loop_
  _symmetry_equiv_pos_site_id
 _symmetry_equiv_pos_as_xyz
 1  'x, y, z'
loop_
 _atom_site_type_symbol
 _atom_site_label
 _atom_site_symmetry_multiplicity
 _atom_site_fract_x
 _atom_site_fract_y
 _atom_site_fract_z
 _atom_site_fract_occupancy
 Mn  Mn1  1  -0.00000  0.50000  0.50000  1
 Mn  Mn2  1  0.00000  0.00000  0.00000  1
 Mn  Mn3  1  0.50000  -0.00000  -0.00000  1
 Mn  Mn4  1  -0.00000  0.50000  -0.00000  1
 Ni  Ni1  1  0.50000  0.50000  -0.00000  1
 O  O1  1  0.46523  0.26431  0.79908  1
 O  O2  1  0.98620  0.27874  0.77848  1
 O  O3  1  0.50026  0.76468  0.77848  1
 O  O4  1  0.97597  0.75148  0.77550  1
 O  O5  1  0.02403  0.24852  0.22450  1
 O  O6  1  0.49974  0.23532  0.22152  1
 O  O7  1  0.01380  0.72126  0.22152  1
 O  O8  1  0.53477  0.73569  0.20092  1
