CIF file written using JARVIS-Tools package.
data_LiAuO2
_symmetry_space_group_name_H-M  'C2/c'
_cell_length_a       3.97116
_cell_length_b       5.34641
_cell_length_c       5.7043
_cell_angle_alpha    111.595
_cell_angle_beta     110.37
_cell_angle_gamma    90.0001

_symmetry_Int_Tables_number  15
_chemical_formula_structural  LiAuO2
_chemical_formula_sum  Li2Au2O4
_cell_volume  104.42084664950775
_cell_formula_units_Z  2
loop_
  _symmetry_equiv_pos_site_id
 _symmetry_equiv_pos_as_xyz
 1  'x, y, z'
loop_
 _atom_site_type_symbol
 _atom_site_label
 _atom_site_symmetry_multiplicity
 _atom_site_fract_x
 _atom_site_fract_y
 _atom_site_fract_z
 _atom_site_fract_occupancy
 Au  Au1  1  -0.00000  -0.00000  0.50000  1
 Au  Au2  1  0.50000  0.50000  0.50000  1
 Li  Li1  1  0.63536  0.25000  -0.00000  1
 Li  Li2  1  0.36464  0.75000  0.00000  1
 O  O1  1  0.69617  0.63127  0.27641  1
 O  O2  1  0.58024  0.13127  0.27641  1
 O  O3  1  0.41976  0.86873  0.72359  1
 O  O4  1  0.30383  0.36873  0.72359  1
