CIF file written using JARVIS-Tools package.
data_InBF4
_symmetry_space_group_name_H-M  'Pnma'
_cell_length_a       5.6818
_cell_length_b       7.26756
_cell_length_c       8.99642
_cell_angle_alpha    90
_cell_angle_beta     90
_cell_angle_gamma    90

_symmetry_Int_Tables_number  62
_chemical_formula_structural  InBF4
_chemical_formula_sum  In4B4F6
_cell_volume  371.4876981832256
_cell_formula_units_Z  4
loop_
  _symmetry_equiv_pos_site_id
 _symmetry_equiv_pos_as_xyz
 1  'x, y, z'
loop_
 _atom_site_type_symbol
 _atom_site_label
 _atom_site_symmetry_multiplicity
 _atom_site_fract_x
 _atom_site_fract_y
 _atom_site_fract_z
 _atom_site_fract_occupancy
 B  B1  1  0.25000  0.68631  0.06864  1
 B  B2  1  0.25000  0.81369  0.56864  1
 B  B3  1  0.75000  0.18631  0.43136  1
 B  B4  1  0.75000  0.31369  0.93136  1
 F  F1  1  0.75000  0.09049  0.56680  1
 F  F2  1  0.54665  0.30100  0.42207  1
 F  F3  1  0.95335  0.19900  0.92207  1
 F  F4  1  0.45335  0.80100  0.07793  1
 F  F5  1  0.95335  0.30100  0.42207  1
 F  F6  1  0.25000  0.56329  0.19082  1
 F  F7  1  0.75000  0.43671  0.80918  1
 F  F8  1  0.04665  0.69900  0.57793  1
 F  F9  1  0.25000  0.93671  0.69082  1
 F  F10  1  0.45335  0.69900  0.57793  1
 F  F11  1  0.75000  0.40951  0.06680  1
 F  F12  1  0.75000  0.06329  0.30918  1
 F  F13  1  0.25000  0.90951  0.43320  1
 F  F14  1  0.04665  0.80100  0.07793  1
 F  F15  1  0.54665  0.19900  0.92207  1
 F  F16  1  0.25000  0.59049  0.93320  1
 In  In1  1  0.25000  0.16791  0.18116  1
 In  In2  1  0.75000  0.83209  0.81884  1
 In  In3  1  0.75000  0.66791  0.31884  1
 In  In4  1  0.25000  0.33209  0.68116  1
