CIF file written using JARVIS-Tools package.
data_LiCoPO4
_symmetry_space_group_name_H-M  'R-3'
_cell_length_a       4.79486
_cell_length_b       8.31968
_cell_length_c       4.79486
_cell_angle_alpha    106.748
_cell_angle_beta     60
_cell_angle_gamma    106.748

_symmetry_Int_Tables_number  148
_chemical_formula_structural  LiCoPO4
_chemical_formula_sum  Li2Co2P2O8
_cell_volume  156.21018390628507
_cell_formula_units_Z  2
loop_
  _symmetry_equiv_pos_site_id
 _symmetry_equiv_pos_as_xyz
 1  'x, y, z'
loop_
 _atom_site_type_symbol
 _atom_site_label
 _atom_site_symmetry_multiplicity
 _atom_site_fract_x
 _atom_site_fract_y
 _atom_site_fract_z
 _atom_site_fract_occupancy
 Co  Co1  1  0.12532  0.37596  0.12532  1
 Co  Co2  1  0.45018  0.35055  0.45018  1
 Li  Li1  1  0.00542  0.01625  0.00542  1
 Li  Li2  1  0.57009  0.71027  0.57009  1
 O  O1  1  0.15798  0.52504  0.54262  1
 O  O2  1  0.03288  0.20147  0.75107  1
 O  O3  1  0.41752  0.20147  0.03288  1
 O  O4  1  0.64714  0.94141  0.64714  1
 O  O5  1  0.82444  0.52504  0.15798  1
 O  O6  1  0.54262  0.52504  0.82444  1
 O  O7  1  0.75107  0.20147  0.41752  1
 O  O8  1  0.92837  0.78510  0.92837  1
 P  P1  1  0.86488  0.59463  0.86488  1
 P  P2  1  0.71063  0.13188  0.71063  1
