CIF file written using JARVIS-Tools package.
data_Cr2O3
_symmetry_space_group_name_H-M  'R-3c'
_cell_length_a       5.3695
_cell_length_b       5.3695
_cell_length_c       5.3695
_cell_angle_alpha    55.7771
_cell_angle_beta     55.7771
_cell_angle_gamma    55.7772

_symmetry_Int_Tables_number  167
_chemical_formula_structural  Cr2O3
_chemical_formula_sum  Cr4O6
_cell_volume  98.74800773341249
_cell_formula_units_Z  2
loop_
  _symmetry_equiv_pos_site_id
 _symmetry_equiv_pos_as_xyz
 1  'x, y, z'
loop_
 _atom_site_type_symbol
 _atom_site_label
 _atom_site_symmetry_multiplicity
 _atom_site_fract_x
 _atom_site_fract_y
 _atom_site_fract_z
 _atom_site_fract_occupancy
 Cr  Cr1  1  0.85045  0.85045  0.85045  1
 Cr  Cr2  1  0.64955  0.64955  0.64955  1
 Cr  Cr3  1  0.14955  0.14955  0.14955  1
 Cr  Cr4  1  0.35045  0.35045  0.35045  1
 O  O1  1  0.05177  0.75000  0.44823  1
 O  O2  1  0.75000  0.44823  0.05177  1
 O  O3  1  0.44823  0.05177  0.75000  1
 O  O4  1  0.94823  0.25000  0.55177  1
 O  O5  1  0.55177  0.94823  0.25000  1
 O  O6  1  0.25000  0.55177  0.94823  1
