CIF file written using JARVIS-Tools package.
data_Li6FeSi2O8
_symmetry_space_group_name_H-M  'P-1'
_cell_length_a       5.08021
_cell_length_b       5.46234
_cell_length_c       6.16939
_cell_angle_alpha    89.2839
_cell_angle_beta     79.1566
_cell_angle_gamma    85.3984

_symmetry_Int_Tables_number  2
_chemical_formula_structural  Li6FeSi2O8
_chemical_formula_sum  Li6FeSi2O8
_cell_volume  167.60025822158505
_cell_formula_units_Z  1
loop_
  _symmetry_equiv_pos_site_id
 _symmetry_equiv_pos_as_xyz
 1  'x, y, z'
loop_
 _atom_site_type_symbol
 _atom_site_label
 _atom_site_symmetry_multiplicity
 _atom_site_fract_x
 _atom_site_fract_y
 _atom_site_fract_z
 _atom_site_fract_occupancy
 Fe  Fe1  1  0.50000  -0.00000  0.50000  1
 Li  Li1  1  0.84714  0.60087  0.19065  1
 Li  Li2  1  0.38392  0.73723  0.96744  1
 Li  Li3  1  0.22929  0.63141  0.39161  1
 Li  Li4  1  0.77071  0.36859  0.60839  1
 Li  Li5  1  0.61608  0.26277  0.03256  1
 Li  Li6  1  0.15286  0.39913  0.80935  1
 O  O1  1  0.23406  0.41171  0.09808  1
 O  O2  1  0.76594  0.58829  0.90192  1
 O  O3  1  0.81457  0.71193  0.48429  1
 O  O4  1  0.29388  0.93209  0.22330  1
 O  O5  1  0.78900  0.21435  0.29338  1
 O  O6  1  0.70612  0.06791  0.77670  1
 O  O7  1  0.18543  0.28807  0.51571  1
 O  O8  1  0.21100  0.78565  0.70662  1
 Si  Si1  1  0.11980  0.19709  0.27506  1
 Si  Si2  1  0.88020  0.80291  0.72494  1
