CIF file written using JARVIS-Tools package.
data_Ho6MnBi2
_symmetry_space_group_name_H-M  'P-62m'
_cell_length_a       8.23518
_cell_length_b       8.23518
_cell_length_c       4.21023
_cell_angle_alpha    90
_cell_angle_beta     90
_cell_angle_gamma    120

_symmetry_Int_Tables_number  189
_chemical_formula_structural  Ho6MnBi2
_chemical_formula_sum  Ho6MnBi2
_cell_volume  247.27654918069405
_cell_formula_units_Z  1
loop_
  _symmetry_equiv_pos_site_id
 _symmetry_equiv_pos_as_xyz
 1  'x, y, z'
loop_
 _atom_site_type_symbol
 _atom_site_label
 _atom_site_symmetry_multiplicity
 _atom_site_fract_x
 _atom_site_fract_y
 _atom_site_fract_z
 _atom_site_fract_occupancy
 Bi  Bi1  1  0.33333  0.66667  0.00000  1
 Bi  Bi2  1  0.66667  0.33333  0.00000  1
 Ho  Ho1  1  -0.00000  0.76805  0.00000  1
 Ho  Ho2  1  0.39057  0.00000  0.50000  1
 Ho  Ho3  1  0.60943  0.60943  0.50000  1
 Ho  Ho4  1  0.23195  0.23195  0.00000  1
 Ho  Ho5  1  0.76805  -0.00000  0.00000  1
 Ho  Ho6  1  0.00000  0.39057  0.50000  1
 Mn  Mn1  1  0.00000  0.00000  0.50000  1
