CIF file written using JARVIS-Tools package.
data_LiCrO2
_symmetry_space_group_name_H-M  'P6_3mc'
_cell_length_a       2.9213
_cell_length_b       2.9213
_cell_length_c       9.74732
_cell_angle_alpha    90
_cell_angle_beta     90
_cell_angle_gamma    120

_symmetry_Int_Tables_number  186
_chemical_formula_structural  LiCrO2
_chemical_formula_sum  Li2Cr2O4
_cell_volume  72.038837930944
_cell_formula_units_Z  2
loop_
  _symmetry_equiv_pos_site_id
 _symmetry_equiv_pos_as_xyz
 1  'x, y, z'
loop_
 _atom_site_type_symbol
 _atom_site_label
 _atom_site_symmetry_multiplicity
 _atom_site_fract_x
 _atom_site_fract_y
 _atom_site_fract_z
 _atom_site_fract_occupancy
 Cr  Cr1  1  0.33333  0.66667  0.50027  1
 Cr  Cr2  1  0.66667  0.33333  0.00027  1
 Li  Li1  1  0.33333  0.66667  0.76120  1
 Li  Li2  1  0.66667  0.33333  0.26120  1
 O  O1  1  0.00000  0.00000  0.38744  1
 O  O2  1  0.33333  0.66667  0.11065  1
 O  O3  1  0.66667  0.33333  0.61065  1
 O  O4  1  0.00000  0.00000  0.88744  1
