CIF file written using JARVIS-Tools package.
data_PrGeBO5
_symmetry_space_group_name_H-M  'P3_1'
_cell_length_a       7.01234
_cell_length_b       7.01234
_cell_length_c       6.85335
_cell_angle_alpha    90
_cell_angle_beta     90
_cell_angle_gamma    120

_symmetry_Int_Tables_number  144
_chemical_formula_structural  PrGeBO5
_chemical_formula_sum  Pr3Ge3B3O5
_cell_volume  291.84965534949043
_cell_formula_units_Z  3
loop_
  _symmetry_equiv_pos_site_id
 _symmetry_equiv_pos_as_xyz
 1  'x, y, z'
loop_
 _atom_site_type_symbol
 _atom_site_label
 _atom_site_symmetry_multiplicity
 _atom_site_fract_x
 _atom_site_fract_y
 _atom_site_fract_z
 _atom_site_fract_occupancy
 B  B1  1  0.89982  0.88316  0.63917  1
 B  B2  1  0.98334  0.10018  0.30584  1
 B  B3  1  0.11684  0.01666  0.97251  1
 Ge  Ge1  1  0.41757  0.42522  0.17018  1
 Ge  Ge2  1  0.00765  0.58243  0.83685  1
 Ge  Ge3  1  0.57478  0.99235  0.50352  1
 O  O1  1  0.67390  0.85826  0.66561  1
 O  O2  1  0.15980  0.54716  0.65318  1
 O  O3  1  0.38736  0.84020  0.31985  1
 O  O4  1  0.52373  0.13795  0.68136  1
 O  O5  1  0.06480  0.04414  0.77140  1
 O  O6  1  0.95586  0.02067  0.10473  1
 O  O7  1  0.97933  0.93520  0.43806  1
 O  O8  1  0.45284  0.61264  0.98652  1
 O  O9  1  0.86205  0.38577  0.01470  1
 O  O10  1  0.84308  0.64814  0.67889  1
 O  O11  1  0.18437  0.32610  0.33228  1
 O  O12  1  0.35186  0.19493  0.01223  1
 O  O13  1  0.14174  0.81563  0.99895  1
 O  O14  1  0.61423  0.47627  0.34803  1
 O  O15  1  0.80507  0.15692  0.34556  1
 Pr  Pr1  1  0.58637  0.00251  0.00283  1
 Pr  Pr2  1  0.99749  0.58387  0.33616  1
 Pr  Pr3  1  0.41613  0.41363  0.66950  1
