CIF file written using JARVIS-Tools package.
data_ZnSb2O4
_symmetry_space_group_name_H-M  'Fd-3m'
_cell_length_a       6.66453
_cell_length_b       6.66454
_cell_length_c       6.66441
_cell_angle_alpha    120.001
_cell_angle_beta     120.001
_cell_angle_gamma    90

_symmetry_Int_Tables_number  227
_chemical_formula_structural  ZnSb2O4
_chemical_formula_sum  Zn2Sb4O8
_cell_volume  209.30430434604173
_cell_formula_units_Z  2
loop_
  _symmetry_equiv_pos_site_id
 _symmetry_equiv_pos_as_xyz
 1  'x, y, z'
loop_
 _atom_site_type_symbol
 _atom_site_label
 _atom_site_symmetry_multiplicity
 _atom_site_fract_x
 _atom_site_fract_y
 _atom_site_fract_z
 _atom_site_fract_occupancy
 O  O1  1  0.75035  0.75108  0.50071  1
 O  O2  1  0.75038  0.24965  0.99929  1
 O  O3  1  0.24892  0.24965  0.99929  1
 O  O4  1  0.24965  0.24892  0.49929  1
 O  O5  1  0.24965  0.75038  0.49929  1
 O  O6  1  0.24962  0.75035  0.00071  1
 O  O7  1  0.75035  0.24962  0.50071  1
 O  O8  1  0.75108  0.75035  0.00071  1
 Sb  Sb1  1  -0.00000  -0.00000  0.50000  1
 Sb  Sb2  1  -0.00000  0.50000  0.00000  1
 Sb  Sb3  1  0.50000  -0.00000  0.50000  1
 Sb  Sb4  1  0.00000  0.00000  0.00000  1
 Zn  Zn1  1  0.37500  0.62500  0.75000  1
 Zn  Zn2  1  0.62500  0.37500  0.25000  1
