CIF file written using JARVIS-Tools package.
data_K2CrPCO7
_symmetry_space_group_name_H-M  'P2_1/m'
_cell_length_a       5.50018
_cell_length_b       6.61228
_cell_length_c       9.62588
_cell_angle_alpha    90
_cell_angle_beta     89.6259
_cell_angle_gamma    90

_symmetry_Int_Tables_number  11
_chemical_formula_structural  K2CrPCO7
_chemical_formula_sum  K4Cr2P2C2O4
_cell_volume  350.07417838253593
_cell_formula_units_Z  2
loop_
  _symmetry_equiv_pos_site_id
 _symmetry_equiv_pos_as_xyz
 1  'x, y, z'
loop_
 _atom_site_type_symbol
 _atom_site_label
 _atom_site_symmetry_multiplicity
 _atom_site_fract_x
 _atom_site_fract_y
 _atom_site_fract_z
 _atom_site_fract_occupancy
 C  C1  1  0.72595  0.75000  0.10389  1
 C  C2  1  0.27405  0.25000  0.89611  1
 Cr  Cr1  1  0.77327  0.75000  0.35630  1
 Cr  Cr2  1  0.22673  0.25000  0.64370  1
 K  K1  1  0.24415  0.47326  0.24479  1
 K  K2  1  0.24415  0.02674  0.24479  1
 K  K3  1  0.75585  0.52674  0.75521  1
 K  K4  1  0.75585  0.97326  0.75521  1
 O  O1  1  0.30248  0.25000  0.02388  1
 O  O2  1  0.06300  0.25000  0.83227  1
 O  O3  1  0.54553  0.75000  0.19576  1
 O  O4  1  0.77049  0.05918  0.34192  1
 O  O5  1  0.77049  0.44082  0.34192  1
 O  O6  1  0.93700  0.75000  0.16773  1
 O  O7  1  0.44967  0.25000  0.47904  1
 O  O8  1  0.22951  0.94082  0.65808  1
 O  O9  1  0.89219  0.25000  0.56012  1
 O  O10  1  0.22951  0.55918  0.65808  1
 O  O11  1  0.10781  0.75000  0.43988  1
 O  O12  1  0.45447  0.25000  0.80424  1
 O  O13  1  0.55033  0.75000  0.52096  1
 O  O14  1  0.69752  0.75000  0.97612  1
 P  P1  1  0.27750  0.75000  0.56773  1
 P  P2  1  0.72250  0.25000  0.43227  1
