CIF file written using JARVIS-Tools package.
data_TlNiO3
_symmetry_space_group_name_H-M  'Pm'
_cell_length_a       3.79807
_cell_length_b       3.82684
_cell_length_c       3.81585
_cell_angle_alpha    85.5993
_cell_angle_beta     89.9968
_cell_angle_gamma    89.9946

_symmetry_Int_Tables_number  6
_chemical_formula_structural  TlNiO3
_chemical_formula_sum  TlNiO3
_cell_volume  55.298435779417424
_cell_formula_units_Z  1
loop_
  _symmetry_equiv_pos_site_id
 _symmetry_equiv_pos_as_xyz
 1  'x, y, z'
loop_
 _atom_site_type_symbol
 _atom_site_label
 _atom_site_symmetry_multiplicity
 _atom_site_fract_x
 _atom_site_fract_y
 _atom_site_fract_z
 _atom_site_fract_occupancy
 Ni  Ni1  1  0.51002  0.49949  0.50020  1
 O  O1  1  0.01002  0.47423  0.56361  1
 O  O2  1  0.51000  0.01415  0.42263  1
 O  O3  1  0.50998  0.57763  0.99266  1
 Tl  Tl1  1  0.00998  0.97449  -0.00910  1
