CIF file written using JARVIS-Tools package.
data_Mn4FeO8
_symmetry_space_group_name_H-M  'C2/m'
_cell_length_a       5.73337
_cell_length_b       5.73337
_cell_length_c       5.84908
_cell_angle_alpha    89.0321
_cell_angle_beta     59.4231
_cell_angle_gamma    60.1142

_symmetry_Int_Tables_number  12
_chemical_formula_structural  Mn4FeO8
_chemical_formula_sum  Mn4FeO8
_cell_volume  136.12172245850687
_cell_formula_units_Z  1
loop_
  _symmetry_equiv_pos_site_id
 _symmetry_equiv_pos_as_xyz
 1  'x, y, z'
loop_
 _atom_site_type_symbol
 _atom_site_label
 _atom_site_symmetry_multiplicity
 _atom_site_fract_x
 _atom_site_fract_y
 _atom_site_fract_z
 _atom_site_fract_occupancy
 Fe  Fe1  1  0.50000  0.50000  0.00000  1
 Mn  Mn1  1  0.00000  0.50000  0.50000  1
 Mn  Mn2  1  0.00000  0.00000  0.00000  1
 Mn  Mn3  1  0.50000  -0.00000  -0.00000  1
 Mn  Mn4  1  0.00000  0.50000  0.00000  1
 O  O1  1  0.46906  0.26826  0.79920  1
 O  O2  1  0.97718  0.27792  0.77725  1
 O  O3  1  0.50067  0.75443  0.77725  1
 O  O4  1  0.97593  0.75394  0.77801  1
 O  O5  1  0.02407  0.24606  0.22199  1
 O  O6  1  0.49933  0.24557  0.22275  1
 O  O7  1  0.02282  0.72208  0.22275  1
 O  O8  1  0.53094  0.73174  0.20080  1
