CIF file written using JARVIS-Tools package.
data_TiS2
_symmetry_space_group_name_H-M  'Fd-3m'
_cell_length_a       6.90654
_cell_length_b       6.90654
_cell_length_c       6.90712
_cell_angle_alpha    120
_cell_angle_beta     120
_cell_angle_gamma    89.9979

_symmetry_Int_Tables_number  227
_chemical_formula_structural  TiS2
_chemical_formula_sum  Ti4S8
_cell_volume  232.97684652468405
_cell_formula_units_Z  4
loop_
  _symmetry_equiv_pos_site_id
 _symmetry_equiv_pos_as_xyz
 1  'x, y, z'
loop_
 _atom_site_type_symbol
 _atom_site_label
 _atom_site_symmetry_multiplicity
 _atom_site_fract_x
 _atom_site_fract_y
 _atom_site_fract_z
 _atom_site_fract_occupancy
 S  S1  1  0.24667  0.74884  0.49778  1
 S  S2  1  0.75109  0.25333  0.00229  1
 S  S3  1  0.75105  0.74889  0.00224  1
 S  S4  1  0.75105  0.74882  0.49769  1
 S  S5  1  0.24888  0.25106  0.50223  1
 S  S6  1  0.24881  0.25106  -0.00230  1
 S  S7  1  0.24882  0.74667  -0.00223  1
 S  S8  1  0.75333  0.25112  0.50230  1
 Ti  Ti1  1  0.00000  0.50005  0.49993  1
 Ti  Ti2  1  0.00008  0.49997  0.99990  1
 Ti  Ti3  1  0.00006  0.00012  0.50006  1
 Ti  Ti4  1  0.50016  0.50007  0.00009  1
