CIF file written using JARVIS-Tools package.
data_Ba2NdSbO6
_symmetry_space_group_name_H-M  'R-3'
_cell_length_a       6.09423
_cell_length_b       6.09423
_cell_length_c       6.09423
_cell_angle_alpha    60.3794
_cell_angle_beta     60.3794
_cell_angle_gamma    60.3795

_symmetry_Int_Tables_number  148
_chemical_formula_structural  Ba2NdSbO6
_chemical_formula_sum  Ba2NdSbO6
_cell_volume  161.41823811349386
_cell_formula_units_Z  1
loop_
  _symmetry_equiv_pos_site_id
 _symmetry_equiv_pos_as_xyz
 1  'x, y, z'
loop_
 _atom_site_type_symbol
 _atom_site_label
 _atom_site_symmetry_multiplicity
 _atom_site_fract_x
 _atom_site_fract_y
 _atom_site_fract_z
 _atom_site_fract_occupancy
 Ba  Ba1  1  0.74910  0.74910  0.74910  1
 Ba  Ba2  1  0.25090  0.25090  0.25090  1
 Nd  Nd1  1  0.00000  0.00000  0.00000  1
 O  O1  1  0.69117  0.27026  0.77263  1
 O  O2  1  0.27026  0.77263  0.69117  1
 O  O3  1  0.77263  0.69117  0.27026  1
 O  O4  1  0.30883  0.72974  0.22737  1
 O  O5  1  0.22737  0.30883  0.72974  1
 O  O6  1  0.72974  0.22737  0.30883  1
 Sb  Sb1  1  0.50000  0.50000  0.50000  1
