CIF file written using JARVIS-Tools package.
data_Li2V3CoO8
_symmetry_space_group_name_H-M  'R3m'
_cell_length_a       5.8684
_cell_length_b       5.8684
_cell_length_c       5.86839
_cell_angle_alpha    58.7787
_cell_angle_beta     58.7787
_cell_angle_gamma    58.7787

_symmetry_Int_Tables_number  160
_chemical_formula_structural  Li2V3CoO8
_chemical_formula_sum  Li2V3CoO8
_cell_volume  138.9176878684655
_cell_formula_units_Z  1
loop_
  _symmetry_equiv_pos_site_id
 _symmetry_equiv_pos_as_xyz
 1  'x, y, z'
loop_
 _atom_site_type_symbol
 _atom_site_label
 _atom_site_symmetry_multiplicity
 _atom_site_fract_x
 _atom_site_fract_y
 _atom_site_fract_z
 _atom_site_fract_occupancy
 Co  Co1  1  0.87522  0.87522  0.87522  1
 Li  Li1  1  0.11996  0.11996  0.11996  1
 Li  Li2  1  0.50336  0.50336  0.50336  1
 O  O1  1  0.25192  0.25192  0.25192  1
 O  O2  1  0.25282  0.71810  0.25282  1
 O  O3  1  0.25282  0.25282  0.71810  1
 O  O4  1  0.71810  0.25282  0.25282  1
 O  O5  1  0.28183  0.75149  0.75149  1
 O  O6  1  0.75149  0.75149  0.28183  1
 O  O7  1  0.75149  0.28183  0.75149  1
 O  O8  1  0.73982  0.73982  0.73982  1
 V  V1  1  0.02082  0.49019  0.49019  1
 V  V2  1  0.49019  0.49019  0.02082  1
 V  V3  1  0.49019  0.02082  0.49019  1
