CIF file written using JARVIS-Tools package.
data_HN
_symmetry_space_group_name_H-M  'P-1'
_cell_length_a       6.20554
_cell_length_b       6.68352
_cell_length_c       8.20197
_cell_angle_alpha    125.707
_cell_angle_beta     79.2584
_cell_angle_gamma    107.319

_symmetry_Int_Tables_number  2
_chemical_formula_structural  HN
_chemical_formula_sum  H6N6
_cell_volume  263.66956468729165
_cell_formula_units_Z  16
loop_
  _symmetry_equiv_pos_site_id
 _symmetry_equiv_pos_as_xyz
 1  'x, y, z'
loop_
 _atom_site_type_symbol
 _atom_site_label
 _atom_site_symmetry_multiplicity
 _atom_site_fract_x
 _atom_site_fract_y
 _atom_site_fract_z
 _atom_site_fract_occupancy
 H  H1  1  0.67382  0.93343  0.34657  1
 H  H2  1  -0.00210  0.32865  0.57060  1
 H  H3  1  -0.00803  0.20548  0.13707  1
 H  H4  1  0.20551  0.02536  0.37427  1
 H  H5  1  0.38024  0.76068  0.93153  1
 H  H6  1  0.40941  0.51376  0.66733  1
 H  H7  1  0.36549  0.58238  0.14228  1
 H  H8  1  0.32618  0.06657  0.65343  1
 H  H9  1  0.21452  0.56203  0.42901  1
 H  H10  1  0.63451  0.41762  0.85772  1
 H  H11  1  0.59059  0.48624  0.33267  1
 H  H12  1  0.61976  0.23932  0.06847  1
 H  H13  1  0.79449  0.97464  0.62573  1
 H  H14  1  0.00803  0.79452  0.86293  1
 H  H15  1  0.00210  0.67135  0.42940  1
 H  H16  1  0.78548  0.43797  0.57099  1
 N  N1  1  0.40621  0.12061  0.22187  1
 N  N2  1  0.80619  0.44911  0.82247  1
 N  N3  1  0.59379  0.87939  0.77813  1
 N  N4  1  0.84336  0.87392  0.11875  1
 N  N5  1  0.16689  0.66040  0.38626  1
 N  N6  1  0.44910  0.70061  0.79099  1
 N  N7  1  0.89885  0.71626  0.93394  1
 N  N8  1  0.30580  0.19014  0.39107  1
 N  N9  1  0.69326  0.77979  0.20265  1
 N  N10  1  0.55090  0.29939  0.20901  1
 N  N11  1  0.10115  0.28374  0.06606  1
 N  N12  1  0.83311  0.33960  0.61374  1
 N  N13  1  0.15664  0.12608  0.88125  1
 N  N14  1  0.69420  0.80986  0.60893  1
 N  N15  1  0.30674  0.22021  0.79735  1
 N  N16  1  0.19381  0.55089  0.17753  1
