CIF file written using JARVIS-Tools package.
data_SmNi
_symmetry_space_group_name_H-M  'Cmcm'
_cell_length_a       3.75171
_cell_length_b       4.29662
_cell_length_c       5.49642
_cell_angle_alpha    90
_cell_angle_beta     70.0447
_cell_angle_gamma    90

_symmetry_Int_Tables_number  63
_chemical_formula_structural  SmNi
_chemical_formula_sum  Sm2Ni2
_cell_volume  83.28093362760606
_cell_formula_units_Z  2
loop_
  _symmetry_equiv_pos_site_id
 _symmetry_equiv_pos_as_xyz
 1  'x, y, z'
loop_
 _atom_site_type_symbol
 _atom_site_label
 _atom_site_symmetry_multiplicity
 _atom_site_fract_x
 _atom_site_fract_y
 _atom_site_fract_z
 _atom_site_fract_occupancy
 Ni  Ni1  1  0.42436  0.75000  0.15128  1
 Ni  Ni2  1  0.57564  0.25000  0.84872  1
 Sm  Sm1  1  0.13815  0.75000  0.72370  1
 Sm  Sm2  1  0.86185  0.25000  0.27630  1
