CIF file written using JARVIS-Tools package.
data_Al2CdCl8
_symmetry_space_group_name_H-M  'Pc'
_cell_length_a       7.07553
_cell_length_b       6.43546
_cell_length_c       12.8555
_cell_angle_alpha    90
_cell_angle_beta     92.9381
_cell_angle_gamma    90

_symmetry_Int_Tables_number  7
_chemical_formula_structural  Al2CdCl8
_chemical_formula_sum  Al4Cd2Cl6
_cell_volume  584.5977406128335
_cell_formula_units_Z  2
loop_
  _symmetry_equiv_pos_site_id
 _symmetry_equiv_pos_as_xyz
 1  'x, y, z'
loop_
 _atom_site_type_symbol
 _atom_site_label
 _atom_site_symmetry_multiplicity
 _atom_site_fract_x
 _atom_site_fract_y
 _atom_site_fract_z
 _atom_site_fract_occupancy
 Al  Al1  1  0.43861  0.94025  0.45568  1
 Al  Al2  1  0.84995  0.43284  0.75943  1
 Al  Al3  1  0.84995  0.56716  0.25943  1
 Al  Al4  1  0.43861  0.05975  0.95568  1
 Cd  Cd1  1  0.99964  0.75234  0.50115  1
 Cd  Cd2  1  0.99964  0.24766  0.00115  1
 Cl  Cl1  1  0.46403  0.91267  0.81126  1
 Cl  Cl2  1  0.46403  0.08733  0.31126  1
 Cl  Cl3  1  0.34302  0.61839  0.43963  1
 Cl  Cl4  1  0.34302  0.38161  0.93963  1
 Cl  Cl5  1  0.08361  0.58790  0.68519  1
 Cl  Cl6  1  0.69748  0.04890  0.05757  1
 Cl  Cl7  1  0.69748  0.95110  0.55757  1
 Cl  Cl8  1  0.21673  0.91830  0.04657  1
 Cl  Cl9  1  0.21673  0.08170  0.54657  1
 Cl  Cl10  1  0.83644  0.42389  0.41462  1
 Cl  Cl11  1  0.94695  0.11832  0.79851  1
 Cl  Cl12  1  0.94695  0.88168  0.29851  1
 Cl  Cl13  1  0.59212  0.44258  0.67139  1
 Cl  Cl14  1  0.59212  0.55742  0.17139  1
 Cl  Cl15  1  0.83644  0.57611  0.91462  1
 Cl  Cl16  1  0.08361  0.41210  0.18519  1
