CIF file written using JARVIS-Tools package.
data_Li2VCoO5
_symmetry_space_group_name_H-M  'P4/nmm'
_cell_length_a       6.54177
_cell_length_b       6.54177
_cell_length_c       4.55523
_cell_angle_alpha    90
_cell_angle_beta     90
_cell_angle_gamma    90

_symmetry_Int_Tables_number  129
_chemical_formula_structural  Li2VCoO5
_chemical_formula_sum  Li4V2Co2O0
_cell_volume  194.93994384670088
_cell_formula_units_Z  2
loop_
  _symmetry_equiv_pos_site_id
 _symmetry_equiv_pos_as_xyz
 1  'x, y, z'
loop_
 _atom_site_type_symbol
 _atom_site_label
 _atom_site_symmetry_multiplicity
 _atom_site_fract_x
 _atom_site_fract_y
 _atom_site_fract_z
 _atom_site_fract_occupancy
 Co  Co1  1  0.00000  0.00000  0.50000  1
 Co  Co2  1  0.50000  0.50000  0.50000  1
 Li  Li1  1  0.25000  0.75000  0.00000  1
 Li  Li2  1  0.75000  0.75000  0.00000  1
 Li  Li3  1  0.75000  0.25000  0.00000  1
 Li  Li4  1  0.25000  0.25000  0.00000  1
 O  O1  1  0.00000  0.50000  0.74508  1
 O  O2  1  0.50000  0.00000  0.25492  1
 O  O3  1  0.77502  0.00000  0.74329  1
 O  O4  1  0.00000  0.77502  0.25671  1
 O  O5  1  0.00000  0.22498  0.25671  1
 O  O6  1  0.72498  0.50000  0.25671  1
 O  O7  1  0.27502  0.50000  0.25671  1
 O  O8  1  0.22498  0.00000  0.74329  1
 O  O9  1  0.50000  0.27502  0.74329  1
 O  O10  1  0.50000  0.72498  0.74329  1
 V  V1  1  0.00000  0.50000  0.37919  1
 V  V2  1  0.50000  0.00000  0.62081  1
