CIF file written using JARVIS-Tools package.
data_Na3Sr3GaP4
_symmetry_space_group_name_H-M  'P6_3mc'
_cell_length_a       9.3895
_cell_length_b       9.3895
_cell_length_c       7.37909
_cell_angle_alpha    90
_cell_angle_beta     90
_cell_angle_gamma    120

_symmetry_Int_Tables_number  186
_chemical_formula_structural  Na3Sr3GaP4
_chemical_formula_sum  Na6Sr6Ga2P8
_cell_volume  563.4032201170459
_cell_formula_units_Z  2
loop_
  _symmetry_equiv_pos_site_id
 _symmetry_equiv_pos_as_xyz
 1  'x, y, z'
loop_
 _atom_site_type_symbol
 _atom_site_label
 _atom_site_symmetry_multiplicity
 _atom_site_fract_x
 _atom_site_fract_y
 _atom_site_fract_z
 _atom_site_fract_occupancy
 Ga  Ga1  1  0.66667  0.33333  0.62515  1
 Ga  Ga2  1  0.33333  0.66667  0.12515  1
 Na  Na1  1  0.13402  0.86598  0.83095  1
 Na  Na2  1  0.86598  0.73196  0.33095  1
 Na  Na3  1  0.26804  0.13402  0.33095  1
 Na  Na4  1  0.73196  0.86598  0.83095  1
 Na  Na5  1  0.13402  0.26804  0.83095  1
 Na  Na6  1  0.86598  0.13402  0.33095  1
 P  P1  1  0.37939  0.18970  0.72008  1
 P  P2  1  0.62061  0.81030  0.22008  1
 P  P3  1  0.18970  0.37939  0.22008  1
 P  P4  1  0.81030  0.18970  0.72008  1
 P  P5  1  0.33333  0.66667  0.78341  1
 P  P6  1  0.81030  0.62061  0.72008  1
 P  P7  1  0.18970  0.81030  0.22008  1
 P  P8  1  0.66667  0.33333  0.28341  1
 Sr  Sr1  1  0.95485  0.47742  0.00011  1
 Sr  Sr2  1  0.52258  0.47742  0.00011  1
 Sr  Sr3  1  0.47742  0.95485  0.50011  1
 Sr  Sr4  1  0.47742  0.52258  0.50011  1
 Sr  Sr5  1  0.04515  0.52258  0.50011  1
 Sr  Sr6  1  0.52258  0.04515  0.00011  1
