CIF file written using JARVIS-Tools package.
data_TiCdO3
_symmetry_space_group_name_H-M  'Pna2_1'
_cell_length_a       5.34821
_cell_length_b       5.4703
_cell_length_c       7.74081
_cell_angle_alpha    90
_cell_angle_beta     90
_cell_angle_gamma    90

_symmetry_Int_Tables_number  33
_chemical_formula_structural  TiCdO3
_chemical_formula_sum  Ti4Cd4O2
_cell_volume  226.46723981136464
_cell_formula_units_Z  4
loop_
  _symmetry_equiv_pos_site_id
 _symmetry_equiv_pos_as_xyz
 1  'x, y, z'
loop_
 _atom_site_type_symbol
 _atom_site_label
 _atom_site_symmetry_multiplicity
 _atom_site_fract_x
 _atom_site_fract_y
 _atom_site_fract_z
 _atom_site_fract_occupancy
 Cd  Cd1  1  0.50947  0.46191  0.75561  1
 Cd  Cd2  1  0.49053  0.53809  0.25561  1
 Cd  Cd3  1  0.99053  0.96191  0.75561  1
 Cd  Cd4  1  0.00947  0.03809  0.25561  1
 O  O1  1  0.90752  0.47047  0.24401  1
 O  O2  1  0.79533  0.21602  0.94585  1
 O  O3  1  0.59248  0.97047  0.24401  1
 O  O4  1  0.70467  0.71602  0.94585  1
 O  O5  1  0.29533  0.28398  0.44585  1
 O  O6  1  0.20467  0.78398  0.44585  1
 O  O7  1  0.19700  0.80837  0.04241  1
 O  O8  1  0.40752  0.02953  0.74401  1
 O  O9  1  0.30300  0.30837  0.04241  1
 O  O10  1  0.80300  0.19163  0.54241  1
 O  O11  1  0.09248  0.52953  0.74401  1
 O  O12  1  0.69700  0.69163  0.54241  1
 Ti  Ti1  1  0.99928  0.49219  0.00723  1
 Ti  Ti2  1  0.00072  0.50781  0.50723  1
 Ti  Ti3  1  0.50072  0.99219  0.00723  1
 Ti  Ti4  1  0.49928  0.00781  0.50723  1
