CIF file written using JARVIS-Tools package.
data_Nb2Bi2PbO9
_symmetry_space_group_name_H-M  'I4/mmm'
_cell_length_a       3.96702
_cell_length_b       3.96702
_cell_length_c       12.7285
_cell_angle_alpha    98.9649
_cell_angle_beta     98.9649
_cell_angle_gamma    89.9989

_symmetry_Int_Tables_number  139
_chemical_formula_structural  Nb2Bi2PbO9
_chemical_formula_sum  Nb2Bi2PbO9
_cell_volume  195.38738288186948
_cell_formula_units_Z  1
loop_
  _symmetry_equiv_pos_site_id
 _symmetry_equiv_pos_as_xyz
 1  'x, y, z'
loop_
 _atom_site_type_symbol
 _atom_site_label
 _atom_site_symmetry_multiplicity
 _atom_site_fract_x
 _atom_site_fract_y
 _atom_site_fract_z
 _atom_site_fract_occupancy
 Bi  Bi1  1  0.20065  0.20065  0.40125  1
 Bi  Bi2  1  0.79935  0.79935  0.59875  1
 Nb  Nb1  1  0.41177  0.41177  0.82354  1
 Nb  Nb2  1  0.58823  0.58823  0.17646  1
 O  O1  1  0.08028  0.58027  0.16058  1
 O  O2  1  0.41973  0.91972  0.83942  1
 O  O3  1  0.91972  0.41973  0.83942  1
 O  O4  1  0.58027  0.08028  0.16058  1
 O  O5  1  0.25000  0.75000  0.50000  1
 O  O6  1  0.50000  0.50000  0.00000  1
 O  O7  1  0.66477  0.66477  0.32960  1
 O  O8  1  0.33523  0.33523  0.67040  1
 O  O9  1  0.75000  0.25000  0.50000  1
 Pb  Pb1  1  0.00000  0.00000  0.00000  1
