CIF file written using JARVIS-Tools package.
data_ZnBiAsO5
_symmetry_space_group_name_H-M  'P2_12_12_1'
_cell_length_a       7.62975
_cell_length_b       6.85282
_cell_length_c       8.72492
_cell_angle_alpha    90
_cell_angle_beta     90
_cell_angle_gamma    90

_symmetry_Int_Tables_number  19
_chemical_formula_structural  ZnBiAsO5
_chemical_formula_sum  Zn4Bi4As4O20
_cell_volume  456.18501306406864
_cell_formula_units_Z  4
loop_
  _symmetry_equiv_pos_site_id
 _symmetry_equiv_pos_as_xyz
 1  'x, y, z'
loop_
 _atom_site_type_symbol
 _atom_site_label
 _atom_site_symmetry_multiplicity
 _atom_site_fract_x
 _atom_site_fract_y
 _atom_site_fract_z
 _atom_site_fract_occupancy
 As  As1  1  0.53860  0.65997  0.13815  1
 As  As2  1  0.96140  0.34003  0.63815  1
 As  As3  1  0.46140  0.15997  0.36185  1
 As  As4  1  0.03860  0.84003  0.86185  1
 Bi  Bi1  1  0.28475  0.67717  0.49195  1
 Bi  Bi2  1  0.21525  0.32283  -0.00805  1
 Bi  Bi3  1  0.71525  0.17717  0.00805  1
 Bi  Bi4  1  0.78475  0.82283  0.50805  1
 O  O1  1  0.95204  0.14087  0.51887  1
 O  O2  1  0.54796  0.85913  0.01887  1
 O  O3  1  0.04796  0.64087  0.98113  1
 O  O4  1  0.45204  0.35913  0.48113  1
 O  O5  1  0.79090  0.33853  0.76632  1
 O  O6  1  -0.05100  0.54387  0.52130  1
 O  O7  1  0.55100  0.45613  0.02130  1
 O  O8  1  0.05100  0.04387  0.97870  1
 O  O9  1  0.44900  0.95613  0.47870  1
 O  O10  1  -0.02211  0.33746  0.15812  1
 O  O11  1  0.83980  0.85950  0.77231  1
 O  O12  1  0.52211  0.66254  0.65812  1
 O  O13  1  0.29090  0.16147  0.23368  1
 O  O14  1  0.20910  0.83853  0.73368  1
 O  O15  1  0.70910  0.66147  0.26632  1
 O  O16  1  0.66020  0.14050  0.27231  1
 O  O17  1  0.02211  0.83746  0.34188  1
 O  O18  1  0.47789  0.16254  0.84188  1
 O  O19  1  0.33980  0.64050  0.22769  1
 O  O20  1  0.16020  0.35950  0.72769  1
 Zn  Zn1  1  0.46869  0.88256  0.79483  1
 Zn  Zn2  1  0.03131  0.11744  0.29483  1
 Zn  Zn3  1  0.53131  0.38256  0.70517  1
 Zn  Zn4  1  -0.03131  0.61744  0.20517  1
