CIF file written using JARVIS-Tools package.
data_LiMnF3
_symmetry_space_group_name_H-M  'Pnna'
_cell_length_a       4.92105
_cell_length_b       5.3417
_cell_length_c       8.81205
_cell_angle_alpha    90
_cell_angle_beta     90
_cell_angle_gamma    90

_symmetry_Int_Tables_number  52
_chemical_formula_structural  LiMnF3
_chemical_formula_sum  Li4Mn4F2
_cell_volume  231.64047329921564
_cell_formula_units_Z  4
loop_
  _symmetry_equiv_pos_site_id
 _symmetry_equiv_pos_as_xyz
 1  'x, y, z'
loop_
 _atom_site_type_symbol
 _atom_site_label
 _atom_site_symmetry_multiplicity
 _atom_site_fract_x
 _atom_site_fract_y
 _atom_site_fract_z
 _atom_site_fract_occupancy
 F  F1  1  0.25000  0.54657  0.25000  1
 F  F2  1  0.77893  0.91192  0.59121  1
 F  F3  1  0.22107  0.08808  0.40879  1
 F  F4  1  0.75000  0.45343  0.75000  1
 F  F5  1  0.75000  0.95343  0.25000  1
 F  F6  1  0.77893  0.41192  0.40879  1
 F  F7  1  0.72107  0.91192  0.90879  1
 F  F8  1  0.27893  0.08808  0.09121  1
 F  F9  1  0.27893  0.58808  0.90879  1
 F  F10  1  0.22107  0.58808  0.59121  1
 F  F11  1  0.25000  0.04657  0.75000  1
 F  F12  1  0.72107  0.41192  0.09121  1
 Li  Li1  1  0.50000  0.25000  0.29965  1
 Li  Li2  1  0.50000  0.75000  0.70035  1
 Li  Li3  1  0.00000  0.75000  0.79965  1
 Li  Li4  1  0.00000  0.25000  0.20035  1
 Mn  Mn1  1  0.50000  0.25000  0.90301  1
 Mn  Mn2  1  0.50000  0.75000  0.09699  1
 Mn  Mn3  1  0.00000  0.25000  0.59699  1
 Mn  Mn4  1  0.00000  0.75000  0.40301  1
