CIF file written using JARVIS-Tools package.
data_NdAgAs2
_symmetry_space_group_name_H-M  'Pnma'
_cell_length_a       4.06942
_cell_length_b       21.181
_cell_length_c       5.77255
_cell_angle_alpha    90
_cell_angle_beta     134.822
_cell_angle_gamma    90

_symmetry_Int_Tables_number  62
_chemical_formula_structural  NdAgAs2
_chemical_formula_sum  Nd4Ag4As8
_cell_volume  352.9207935096663
_cell_formula_units_Z  4
loop_
  _symmetry_equiv_pos_site_id
 _symmetry_equiv_pos_as_xyz
 1  'x, y, z'
loop_
 _atom_site_type_symbol
 _atom_site_label
 _atom_site_symmetry_multiplicity
 _atom_site_fract_x
 _atom_site_fract_y
 _atom_site_fract_z
 _atom_site_fract_occupancy
 Ag  Ag1  1  0.47611  0.24995  0.72588  1
 Ag  Ag2  1  0.47611  0.25005  0.22588  1
 Ag  Ag3  1  0.52389  0.74995  0.77412  1
 Ag  Ag4  1  0.52389  0.75005  0.27412  1
 As  As1  1  0.97713  0.16023  0.22697  1
 As  As2  1  0.97713  0.33977  0.72697  1
 As  As3  1  0.02287  0.66023  0.27303  1
 As  As4  1  0.02287  0.83977  0.77303  1
 As  As5  1  0.45488  0.00150  0.20484  1
 As  As6  1  0.45488  0.49850  0.70484  1
 As  As7  1  0.54512  0.50150  0.29516  1
 As  As8  1  0.54512  0.99850  0.79516  1
 Nd  Nd1  1  0.97755  0.11559  0.72740  1
 Nd  Nd2  1  0.97755  0.38441  0.22740  1
 Nd  Nd3  1  0.02245  0.61559  0.77260  1
 Nd  Nd4  1  0.02245  0.88441  0.27260  1
