CIF file written using JARVIS-Tools package.
data_AuSCl5
_symmetry_space_group_name_H-M  'P2_1/c'
_cell_length_a       8.02388
_cell_length_b       8.0701
_cell_length_c       12.8985
_cell_angle_alpha    90
_cell_angle_beta     115.766
_cell_angle_gamma    90

_symmetry_Int_Tables_number  14
_chemical_formula_structural  AuSCl5
_chemical_formula_sum  Au4S4Cl20
_cell_volume  752.1819280098405
_cell_formula_units_Z  4
loop_
  _symmetry_equiv_pos_site_id
 _symmetry_equiv_pos_as_xyz
 1  'x, y, z'
loop_
 _atom_site_type_symbol
 _atom_site_label
 _atom_site_symmetry_multiplicity
 _atom_site_fract_x
 _atom_site_fract_y
 _atom_site_fract_z
 _atom_site_fract_occupancy
 Au  Au1  1  0.91060  0.67745  0.34149  1
 Au  Au2  1  0.08940  0.17745  0.15851  1
 Au  Au3  1  0.08940  0.32255  0.65851  1
 Au  Au4  1  0.91060  0.82255  0.84149  1
 Cl  Cl1  1  0.49163  0.66713  0.37633  1
 Cl  Cl2  1  0.49163  0.83287  0.87633  1
 Cl  Cl3  1  0.50837  0.33287  0.62367  1
 Cl  Cl4  1  0.50837  0.16713  0.12367  1
 Cl  Cl5  1  0.17954  0.84987  0.01413  1
 Cl  Cl6  1  0.24832  0.47798  0.04457  1
 Cl  Cl7  1  0.82046  0.15013  0.98587  1
 Cl  Cl8  1  0.17954  0.65013  0.51413  1
 Cl  Cl9  1  0.82046  0.34987  0.48587  1
 Cl  Cl10  1  0.92305  0.37076  0.76489  1
 Cl  Cl11  1  0.35657  0.21526  0.32445  1
 Cl  Cl12  1  0.75168  0.52202  0.95543  1
 Cl  Cl13  1  0.07695  0.87076  0.73511  1
 Cl  Cl14  1  0.64343  0.71526  0.17555  1
 Cl  Cl15  1  0.24832  0.02202  0.54457  1
 Cl  Cl16  1  0.35657  0.28474  0.82445  1
 Cl  Cl17  1  0.64343  0.78474  0.67555  1
 Cl  Cl18  1  0.07695  0.62924  0.23511  1
 Cl  Cl19  1  0.92305  0.12924  0.26489  1
 Cl  Cl20  1  0.75168  0.97798  0.45543  1
 S  S1  1  0.23731  0.27364  0.53693  1
 S  S2  1  0.23731  0.22636  0.03693  1
 S  S3  1  0.76269  0.72636  0.46307  1
 S  S4  1  0.76269  0.77364  0.96307  1
