CIF file written using JARVIS-Tools package.
data_Tb3CuSnS7
_symmetry_space_group_name_H-M  'P6_3'
_cell_length_a       9.76224
_cell_length_b       9.76224
_cell_length_c       6.22652
_cell_angle_alpha    90
_cell_angle_beta     90
_cell_angle_gamma    120

_symmetry_Int_Tables_number  173
_chemical_formula_structural  Tb3CuSnS7
_chemical_formula_sum  Tb6Cu2Sn2S4
_cell_volume  513.89577101354
_cell_formula_units_Z  2
loop_
  _symmetry_equiv_pos_site_id
 _symmetry_equiv_pos_as_xyz
 1  'x, y, z'
loop_
 _atom_site_type_symbol
 _atom_site_label
 _atom_site_symmetry_multiplicity
 _atom_site_fract_x
 _atom_site_fract_y
 _atom_site_fract_z
 _atom_site_fract_occupancy
 Cu  Cu1  1  0.00000  0.00000  0.66319  1
 Cu  Cu2  1  0.00000  0.00000  0.16319  1
 S  S1  1  0.33333  0.66667  0.95437  1
 S  S2  1  0.56004  0.08049  0.02086  1
 S  S3  1  0.85296  0.73678  0.69882  1
 S  S4  1  0.91951  0.47954  0.02086  1
 S  S5  1  0.47954  0.56004  0.52086  1
 S  S6  1  0.14704  0.26322  0.19882  1
 S  S7  1  0.52046  0.43996  0.02086  1
 S  S8  1  0.26322  0.11618  0.69882  1
 S  S9  1  0.66667  0.33333  0.45437  1
 S  S10  1  0.11618  0.85296  0.19882  1
 S  S11  1  0.73678  0.88382  0.19882  1
 S  S12  1  0.43996  0.91951  0.52086  1
 S  S13  1  0.88382  0.14704  0.69882  1
 S  S14  1  0.08049  0.52046  0.52086  1
 Sn  Sn1  1  0.33333  0.66667  0.33971  1
 Sn  Sn2  1  0.66667  0.33333  0.83971  1
 Tb  Tb1  1  0.84779  0.20775  0.27496  1
 Tb  Tb2  1  0.20775  0.35995  0.77496  1
 Tb  Tb3  1  0.64005  0.84779  0.77496  1
 Tb  Tb4  1  0.79225  0.64005  0.27496  1
 Tb  Tb5  1  0.15221  0.79225  0.77496  1
 Tb  Tb6  1  0.35995  0.15221  0.27496  1
