CIF file written using JARVIS-Tools package.
data_LiFePO4
_symmetry_space_group_name_H-M  'Cmcm'
_cell_length_a       5.00365
_cell_length_b       5.00365
_cell_length_c       6.19973
_cell_angle_alpha    90
_cell_angle_beta     90
_cell_angle_gamma    68.774

_symmetry_Int_Tables_number  63
_chemical_formula_structural  LiFePO4
_chemical_formula_sum  Li2Fe2P2O8
_cell_volume  144.68919431592062
_cell_formula_units_Z  2
loop_
  _symmetry_equiv_pos_site_id
 _symmetry_equiv_pos_as_xyz
 1  'x, y, z'
loop_
 _atom_site_type_symbol
 _atom_site_label
 _atom_site_symmetry_multiplicity
 _atom_site_fract_x
 _atom_site_fract_y
 _atom_site_fract_z
 _atom_site_fract_occupancy
 Fe  Fe1  1  0.18311  0.18311  0.25000  1
 Fe  Fe2  1  0.81689  0.81689  0.75000  1
 Li  Li1  1  0.50000  0.50000  0.00000  1
 Li  Li2  1  0.50000  0.50000  0.50000  1
 O  O1  1  0.18817  0.74880  0.25000  1
 O  O2  1  0.25120  0.81183  0.75000  1
 O  O3  1  0.25654  0.25654  0.54787  1
 O  O4  1  0.25654  0.25654  0.95213  1
 O  O5  1  0.74346  0.74346  0.04787  1
 O  O6  1  0.74346  0.74346  0.45213  1
 O  O7  1  0.74880  0.18817  0.25000  1
 O  O8  1  0.81183  0.25120  0.75000  1
 P  P1  1  0.14602  0.14602  0.75000  1
 P  P2  1  0.85398  0.85398  0.25000  1
