CIF file written using JARVIS-Tools package.
data_SmNiGe2
_symmetry_space_group_name_H-M  'Cmcm'
_cell_length_a       4.23564
_cell_length_b       4.19386
_cell_length_c       8.60179
_cell_angle_alpha    75.8903
_cell_angle_beta     90
_cell_angle_gamma    90

_symmetry_Int_Tables_number  63
_chemical_formula_structural  SmNiGe2
_chemical_formula_sum  Sm2Ni2Ge4
_cell_volume  148.1893980057812
_cell_formula_units_Z  2
loop_
  _symmetry_equiv_pos_site_id
 _symmetry_equiv_pos_as_xyz
 1  'x, y, z'
loop_
 _atom_site_type_symbol
 _atom_site_label
 _atom_site_symmetry_multiplicity
 _atom_site_fract_x
 _atom_site_fract_y
 _atom_site_fract_z
 _atom_site_fract_occupancy
 Ge  Ge1  1  0.75000  0.45799  0.08401  1
 Ge  Ge2  1  0.25000  0.25096  0.49807  1
 Ge  Ge3  1  0.75000  0.74903  0.50193  1
 Ge  Ge4  1  0.25000  0.54201  0.91599  1
 Ni  Ni1  1  0.75000  0.31923  0.36153  1
 Ni  Ni2  1  0.25000  0.68077  0.63847  1
 Sm  Sm1  1  0.25000  0.89198  0.21604  1
 Sm  Sm2  1  0.75000  0.10802  0.78396  1
