CIF file written using JARVIS-Tools package.
data_Dy2CoSi2
_symmetry_space_group_name_H-M  'C2/m'
_cell_length_a       4.14153
_cell_length_b       5.60793
_cell_length_c       8.97396
_cell_angle_alpha    83.1891
_cell_angle_beta     76.6586
_cell_angle_gamma    68.3302

_symmetry_Int_Tables_number  12
_chemical_formula_structural  Dy2CoSi2
_chemical_formula_sum  Dy4Co2Si4
_cell_volume  188.3384094945069
_cell_formula_units_Z  2
loop_
  _symmetry_equiv_pos_site_id
 _symmetry_equiv_pos_as_xyz
 1  'x, y, z'
loop_
 _atom_site_type_symbol
 _atom_site_label
 _atom_site_symmetry_multiplicity
 _atom_site_fract_x
 _atom_site_fract_y
 _atom_site_fract_z
 _atom_site_fract_occupancy
 Co  Co1  1  0.72677  0.92415  0.62232  1
 Co  Co2  1  0.27323  0.07585  0.37768  1
 Dy  Dy1  1  0.18626  0.73291  0.89456  1
 Dy  Dy2  1  0.81374  0.26709  0.10544  1
 Dy  Dy3  1  0.99882  0.33065  0.67172  1
 Dy  Dy4  1  0.00118  0.66935  0.32828  1
 Si  Si1  1  0.49386  0.13889  0.87339  1
 Si  Si2  1  0.50614  0.86111  0.12661  1
 Si  Si3  1  0.34678  0.73939  0.56706  1
 Si  Si4  1  0.65322  0.26061  0.43294  1
