CIF file written using JARVIS-Tools package.
data_Ca2AlCoO5
_symmetry_space_group_name_H-M  'Ima2'
_cell_length_a       5.20312
_cell_length_b       5.50478
_cell_length_c       8.32496
_cell_angle_alpha    109.306
_cell_angle_beta     108.21
_cell_angle_gamma    90

_symmetry_Int_Tables_number  46
_chemical_formula_structural  Ca2AlCoO5
_chemical_formula_sum  Ca4Al2Co2O0
_cell_volume  212.33958815270358
_cell_formula_units_Z  2
loop_
  _symmetry_equiv_pos_site_id
 _symmetry_equiv_pos_as_xyz
 1  'x, y, z'
loop_
 _atom_site_type_symbol
 _atom_site_label
 _atom_site_symmetry_multiplicity
 _atom_site_fract_x
 _atom_site_fract_y
 _atom_site_fract_z
 _atom_site_fract_occupancy
 Al  Al1  1  0.79401  0.67383  0.49980  1
 Al  Al2  1  0.29401  0.32226  0.49979  1
 Ca  Ca1  1  0.89760  0.35861  0.78146  1
 Ca  Ca2  1  0.61597  0.07694  0.21813  1
 Ca  Ca3  1  0.11597  0.63749  0.21813  1
 Ca  Ca4  1  0.39761  0.91915  0.78147  1
 Co  Co1  1  0.49651  0.49805  0.99979  1
 Co  Co2  1  0.99651  0.99804  0.99979  1
 O  O1  1  0.73704  0.73210  0.97502  1
 O  O2  1  0.63605  0.38248  0.49979  1
 O  O3  1  0.32322  0.28451  0.70626  1
 O  O4  1  0.13605  0.61362  0.49980  1
 O  O5  1  0.23704  0.73921  0.97502  1
 O  O6  1  0.11674  0.07805  0.29333  1
 O  O7  1  0.26193  0.25677  0.02457  1
 O  O8  1  0.61674  0.71160  0.29334  1
 O  O9  1  0.82323  0.91804  0.70627  1
 O  O10  1  0.76192  0.26409  0.02457  1
