CIF file written using JARVIS-Tools package.
data_RbSnBr3
_symmetry_space_group_name_H-M  'Pnma'
_cell_length_a       4.51094
_cell_length_b       9.36884
_cell_length_c       16.2717
_cell_angle_alpha    90
_cell_angle_beta     90
_cell_angle_gamma    90

_symmetry_Int_Tables_number  62
_chemical_formula_structural  RbSnBr3
_chemical_formula_sum  Rb4Sn4Br2
_cell_volume  687.679356718317
_cell_formula_units_Z  4
loop_
  _symmetry_equiv_pos_site_id
 _symmetry_equiv_pos_as_xyz
 1  'x, y, z'
loop_
 _atom_site_type_symbol
 _atom_site_label
 _atom_site_symmetry_multiplicity
 _atom_site_fract_x
 _atom_site_fract_y
 _atom_site_fract_z
 _atom_site_fract_occupancy
 Br  Br1  1  0.25000  0.30721  0.21156  1
 Br  Br2  1  0.75000  0.33976  0.99561  1
 Br  Br3  1  0.25000  0.80721  0.28844  1
 Br  Br4  1  0.75000  0.83976  0.50439  1
 Br  Br5  1  0.25000  0.16024  0.49561  1
 Br  Br6  1  0.25000  0.66024  0.00439  1
 Br  Br7  1  0.75000  0.97065  0.12366  1
 Br  Br8  1  0.25000  0.52935  0.62366  1
 Br  Br9  1  0.75000  0.47065  0.37634  1
 Br  Br10  1  0.75000  0.19279  0.71156  1
 Br  Br11  1  0.75000  0.69279  0.78844  1
 Br  Br12  1  0.25000  0.02935  0.87634  1
 Rb  Rb1  1  0.25000  0.40895  0.82971  1
 Rb  Rb2  1  0.75000  0.59105  0.17029  1
 Rb  Rb3  1  0.25000  0.90895  0.67029  1
 Rb  Rb4  1  0.75000  0.09105  0.32971  1
 Sn  Sn1  1  0.75000  0.33910  0.56298  1
 Sn  Sn2  1  0.25000  0.66090  0.43702  1
 Sn  Sn3  1  0.75000  0.83910  0.93702  1
 Sn  Sn4  1  0.25000  0.16090  0.06298  1
