CIF file written using JARVIS-Tools package.
data_CrNiO4
_symmetry_space_group_name_H-M  'Cmcm'
_cell_length_a       4.90675
_cell_length_b       4.90676
_cell_length_c       6.10378
_cell_angle_alpha    90
_cell_angle_beta     90
_cell_angle_gamma    111.801

_symmetry_Int_Tables_number  63
_chemical_formula_structural  CrNiO4
_chemical_formula_sum  Cr2Ni2O8
_cell_volume  136.44552742301298
_cell_formula_units_Z  2
loop_
  _symmetry_equiv_pos_site_id
 _symmetry_equiv_pos_as_xyz
 1  'x, y, z'
loop_
 _atom_site_type_symbol
 _atom_site_label
 _atom_site_symmetry_multiplicity
 _atom_site_fract_x
 _atom_site_fract_y
 _atom_site_fract_z
 _atom_site_fract_occupancy
 Cr  Cr1  1  0.64122  0.35878  0.25000  1
 Cr  Cr2  1  0.35878  0.64122  0.75000  1
 Ni  Ni1  1  0.00000  0.00000  0.50000  1
 Ni  Ni2  1  0.00000  0.00000  0.00000  1
 O  O1  1  0.22025  0.26381  0.75000  1
 O  O2  1  0.77975  0.73619  0.25000  1
 O  O3  1  0.26381  0.22025  0.25000  1
 O  O4  1  0.73619  0.77975  0.75000  1
 O  O5  1  0.23933  0.76067  0.96685  1
 O  O6  1  0.76067  0.23933  0.46685  1
 O  O7  1  0.76067  0.23933  0.03315  1
 O  O8  1  0.23933  0.76067  0.53315  1
