CIF file written using JARVIS-Tools package.
data_LiMnPO4
_symmetry_space_group_name_H-M  'P2_13'
_cell_length_a       7.12484
_cell_length_b       7.12484
_cell_length_c       7.12484
_cell_angle_alpha    90
_cell_angle_beta     90
_cell_angle_gamma    90

_symmetry_Int_Tables_number  198
_chemical_formula_structural  LiMnPO4
_chemical_formula_sum  Li4Mn4P4O6
_cell_volume  361.680419556881
_cell_formula_units_Z  4
loop_
  _symmetry_equiv_pos_site_id
 _symmetry_equiv_pos_as_xyz
 1  'x, y, z'
loop_
 _atom_site_type_symbol
 _atom_site_label
 _atom_site_symmetry_multiplicity
 _atom_site_fract_x
 _atom_site_fract_y
 _atom_site_fract_z
 _atom_site_fract_occupancy
 Li  Li1  1  0.20230  0.70230  0.79770  1
 Li  Li2  1  0.29770  0.29770  0.29770  1
 Li  Li3  1  0.70230  0.79770  0.20230  1
 Li  Li4  1  0.79770  0.20230  0.70230  1
 Mn  Mn1  1  0.27246  0.72754  0.22754  1
 Mn  Mn2  1  0.22754  0.27246  0.72754  1
 Mn  Mn3  1  0.77246  0.77246  0.77246  1
 Mn  Mn4  1  0.72754  0.22754  0.27246  1
 O  O1  1  0.15147  0.15147  0.15147  1
 O  O2  1  0.32201  0.47865  0.89811  1
 O  O3  1  0.39811  0.17799  0.52135  1
 O  O4  1  0.97865  0.60189  0.67799  1
 O  O5  1  0.17799  0.52135  0.39811  1
 O  O6  1  0.84853  0.65147  0.34853  1
 O  O7  1  0.52135  0.39811  0.17799  1
 O  O8  1  0.10189  0.82201  0.02135  1
 O  O9  1  0.47865  0.89811  0.32201  1
 O  O10  1  0.89811  0.32201  0.47865  1
 O  O11  1  0.67799  0.97865  0.60189  1
 O  O12  1  0.60189  0.67799  0.97865  1
 O  O13  1  0.34853  0.84853  0.65147  1
 O  O14  1  0.82201  0.02135  0.10189  1
 O  O15  1  0.65147  0.34853  0.84853  1
 O  O16  1  0.02135  0.10189  0.82201  1
 P  P1  1  0.02989  0.02989  0.02989  1
 P  P2  1  0.97011  0.52989  0.47011  1
 P  P3  1  0.47011  0.97011  0.52989  1
 P  P4  1  0.52989  0.47011  0.97011  1
