CIF file written using JARVIS-Tools package.
data_Dy2Mg
_symmetry_space_group_name_H-M  'Cmcm'
_cell_length_a       3.61836
_cell_length_b       8.73981
_cell_length_c       5.43062
_cell_angle_alpha    90
_cell_angle_beta     90
_cell_angle_gamma    78.0531

_symmetry_Int_Tables_number  63
_chemical_formula_structural  Dy2Mg
_chemical_formula_sum  Dy4Mg2
_cell_volume  168.01688081383847
_cell_formula_units_Z  2
loop_
  _symmetry_equiv_pos_site_id
 _symmetry_equiv_pos_as_xyz
 1  'x, y, z'
loop_
 _atom_site_type_symbol
 _atom_site_label
 _atom_site_symmetry_multiplicity
 _atom_site_fract_x
 _atom_site_fract_y
 _atom_site_fract_z
 _atom_site_fract_occupancy
 Dy  Dy1  1  0.98389  0.03222  0.00000  1
 Dy  Dy2  1  0.66201  0.67598  0.00000  1
 Dy  Dy3  1  0.79389  0.41223  0.50000  1
 Dy  Dy4  1  0.11577  0.76846  0.50000  1
 Mg  Mg1  1  0.32411  0.35177  0.00000  1
 Mg  Mg2  1  0.45367  0.09267  0.50000  1
