CIF file written using JARVIS-Tools package.
data_K2HfF6
_symmetry_space_group_name_H-M  'P4/mnc'
_cell_length_a       6.03739
_cell_length_b       6.03739
_cell_length_c       8.90146
_cell_angle_alpha    90
_cell_angle_beta     90
_cell_angle_gamma    90

_symmetry_Int_Tables_number  128
_chemical_formula_structural  K2HfF6
_chemical_formula_sum  K4Hf2F2
_cell_volume  324.4593835320457
_cell_formula_units_Z  2
loop_
  _symmetry_equiv_pos_site_id
 _symmetry_equiv_pos_as_xyz
 1  'x, y, z'
loop_
 _atom_site_type_symbol
 _atom_site_label
 _atom_site_symmetry_multiplicity
 _atom_site_fract_x
 _atom_site_fract_y
 _atom_site_fract_z
 _atom_site_fract_occupancy
 F  F1  1  0.50000  0.50000  0.27433  1
 F  F2  1  0.34463  0.20728  0.50000  1
 F  F3  1  0.65537  0.79272  0.50000  1
 F  F4  1  0.29272  0.15537  0.00000  1
 F  F5  1  0.20728  0.65537  0.50000  1
 F  F6  1  0.70728  0.84463  0.00000  1
 F  F7  1  0.15537  0.70728  0.00000  1
 F  F8  1  0.00000  0.00000  0.22567  1
 F  F9  1  0.84463  0.29272  0.00000  1
 F  F10  1  0.00000  0.00000  0.77433  1
 F  F11  1  0.50000  0.50000  0.72567  1
 F  F12  1  0.79272  0.34463  0.50000  1
 Hf  Hf1  1  0.50000  0.50000  0.50000  1
 Hf  Hf2  1  0.00000  0.00000  0.00000  1
 K  K1  1  0.00000  0.50000  0.75000  1
 K  K2  1  0.50000  0.00000  0.75000  1
 K  K3  1  0.50000  0.00000  0.25000  1
 K  K4  1  0.00000  0.50000  0.25000  1
