CIF file written using JARVIS-Tools package.
data_LiCdBO3
_symmetry_space_group_name_H-M  'P-6'
_cell_length_a       8.3734
_cell_length_b       8.3734
_cell_length_c       3.26713
_cell_angle_alpha    90
_cell_angle_beta     90
_cell_angle_gamma    120

_symmetry_Int_Tables_number  174
_chemical_formula_structural  LiCdBO3
_chemical_formula_sum  Li3Cd3B3O9
_cell_volume  198.38114017278951
_cell_formula_units_Z  3
loop_
  _symmetry_equiv_pos_site_id
 _symmetry_equiv_pos_as_xyz
 1  'x, y, z'
loop_
 _atom_site_type_symbol
 _atom_site_label
 _atom_site_symmetry_multiplicity
 _atom_site_fract_x
 _atom_site_fract_y
 _atom_site_fract_z
 _atom_site_fract_occupancy
 B  B1  1  0.00000  0.00000  0.00000  1
 B  B2  1  0.33333  0.66667  0.50000  1
 B  B3  1  0.66667  0.33333  0.50000  1
 Cd  Cd1  1  0.63116  0.99564  0.00000  1
 Cd  Cd2  1  0.00436  0.63552  0.00000  1
 Cd  Cd3  1  0.36448  0.36884  0.00000  1
 Li  Li1  1  0.29105  0.00731  0.50000  1
 Li  Li2  1  0.71626  0.70895  0.50000  1
 Li  Li3  1  0.99269  0.28374  0.50000  1
 O  O1  1  0.58517  0.44233  0.50000  1
 O  O2  1  0.85716  0.41483  0.50000  1
 O  O3  1  0.18836  0.06177  0.00000  1
 O  O4  1  0.93823  0.12659  0.00000  1
 O  O5  1  0.87341  0.81164  0.00000  1
 O  O6  1  0.24684  0.47538  0.50000  1
 O  O7  1  0.22853  0.75316  0.50000  1
 O  O8  1  0.52462  0.77147  0.50000  1
 O  O9  1  0.55767  0.14284  0.50000  1
