CIF file written using JARVIS-Tools package.
data_Na2B2Se7
_symmetry_space_group_name_H-M  'C2/c'
_cell_length_a       6.7061
_cell_length_b       8.17556
_cell_length_c       11.0775
_cell_angle_alpha    74.3031
_cell_angle_beta     72.3807
_cell_angle_gamma    65.7869

_symmetry_Int_Tables_number  15
_chemical_formula_structural  Na2B2Se7
_chemical_formula_sum  Na4B4Se4
_cell_volume  520.3797566799298
_cell_formula_units_Z  2
loop_
  _symmetry_equiv_pos_site_id
 _symmetry_equiv_pos_as_xyz
 1  'x, y, z'
loop_
 _atom_site_type_symbol
 _atom_site_label
 _atom_site_symmetry_multiplicity
 _atom_site_fract_x
 _atom_site_fract_y
 _atom_site_fract_z
 _atom_site_fract_occupancy
 B  B1  1  0.83575  0.61418  0.15024  1
 B  B2  1  0.60017  0.88582  0.34976  1
 B  B3  1  0.16425  0.38582  0.84976  1
 B  B4  1  0.39983  0.11418  0.65024  1
 Na  Na1  1  0.67285  0.18181  0.03488  1
 Na  Na2  1  0.88954  0.31819  0.46512  1
 Na  Na3  1  0.32715  0.81819  0.96512  1
 Na  Na4  1  0.11046  0.68181  0.53488  1
 Se  Se1  1  0.51758  0.75000  0.25000  1
 Se  Se2  1  0.48242  0.25000  0.75000  1
 Se  Se3  1  0.91008  0.40124  0.77541  1
 Se  Se4  1  0.43871  0.28165  0.47763  1
 Se  Se5  1  0.80201  0.78165  0.97763  1
 Se  Se6  1  0.19799  0.21835  0.02237  1
 Se  Se7  1  0.63028  0.85417  0.66961  1
 Se  Se8  1  0.36972  0.14583  0.33039  1
 Se  Se9  1  0.15406  0.64583  0.83039  1
 Se  Se10  1  0.56129  0.71835  0.52237  1
 Se  Se11  1  0.08992  0.59876  0.22459  1
 Se  Se12  1  0.91328  0.90124  0.27541  1
 Se  Se13  1  0.84594  0.35417  0.16961  1
 Se  Se14  1  0.08672  0.09876  0.72459  1
