CIF file written using JARVIS-Tools package.
data_Li3SiNi3O8
_symmetry_space_group_name_H-M  'P2/m'
_cell_length_a       5.04197
_cell_length_b       5.55787
_cell_length_c       5.09001
_cell_angle_alpha    90
_cell_angle_beta     111.427
_cell_angle_gamma    90

_symmetry_Int_Tables_number  10
_chemical_formula_structural  Li3SiNi3O8
_chemical_formula_sum  Li3SiNi3O8
_cell_volume  132.77766578460015
_cell_formula_units_Z  1
loop_
  _symmetry_equiv_pos_site_id
 _symmetry_equiv_pos_as_xyz
 1  'x, y, z'
loop_
 _atom_site_type_symbol
 _atom_site_label
 _atom_site_symmetry_multiplicity
 _atom_site_fract_x
 _atom_site_fract_y
 _atom_site_fract_z
 _atom_site_fract_occupancy
 Li  Li1  1  0.00000  0.50000  0.00000  1
 Li  Li2  1  0.50000  0.75628  0.00000  1
 Li  Li3  1  0.50000  0.24372  0.00000  1
 Ni  Ni1  1  -0.00000  0.75380  0.50000  1
 Ni  Ni2  1  -0.00000  0.24620  0.50000  1
 Ni  Ni3  1  0.50000  0.50000  0.50000  1
 O  O1  1  0.72865  0.00000  0.29775  1
 O  O2  1  0.76336  0.50000  0.28018  1
 O  O3  1  0.71664  0.75988  0.71616  1
 O  O4  1  0.28336  0.75988  0.28384  1
 O  O5  1  0.71664  0.24012  0.71616  1
 O  O6  1  0.27135  0.00000  0.70225  1
 O  O7  1  0.23664  0.50000  0.71982  1
 O  O8  1  0.28336  0.24012  0.28384  1
 Si  Si1  1  0.50000  0.00000  0.50000  1
