CIF file written using JARVIS-Tools package.
data_Tm2TeO6
_symmetry_space_group_name_H-M  'P321'
_cell_length_a       9.03726
_cell_length_b       9.0373
_cell_length_c       5.11116
_cell_angle_alpha    90.0007
_cell_angle_beta     89.9989
_cell_angle_gamma    120.001

_symmetry_Int_Tables_number  150
_chemical_formula_structural  Tm2TeO6
_chemical_formula_sum  Tm6Te3O8
_cell_volume  361.511813566696
_cell_formula_units_Z  3
loop_
  _symmetry_equiv_pos_site_id
 _symmetry_equiv_pos_as_xyz
 1  'x, y, z'
loop_
 _atom_site_type_symbol
 _atom_site_label
 _atom_site_symmetry_multiplicity
 _atom_site_fract_x
 _atom_site_fract_y
 _atom_site_fract_z
 _atom_site_fract_occupancy
 O  O1  1  0.54272  0.12996  0.28611  1
 O  O2  1  0.07922  0.87619  0.78522  1
 O  O3  1  0.22578  0.76444  0.27837  1
 O  O4  1  0.12995  0.54272  0.71389  1
 O  O5  1  0.41275  0.87004  0.71389  1
 O  O6  1  0.87004  0.41275  0.28611  1
 O  O7  1  0.12381  0.20304  0.78524  1
 O  O8  1  0.20304  0.12381  0.21477  1
 O  O9  1  0.23555  0.46133  0.27838  1
 O  O10  1  0.45728  0.58724  0.71389  1
 O  O11  1  0.46132  0.23555  0.72162  1
 O  O12  1  0.58724  0.45728  0.28611  1
 O  O13  1  0.53867  0.77422  0.27839  1
 O  O14  1  0.87618  0.07922  0.21478  1
 O  O15  1  0.92077  0.79696  0.21477  1
 O  O16  1  0.76444  0.22578  0.72162  1
 O  O17  1  0.79696  0.92078  0.78523  1
 O  O18  1  0.77422  0.53867  0.72162  1
 Te  Te1  1  0.33333  0.66666  0.49683  1
 Te  Te2  1  0.66667  0.33334  0.50317  1
 Te  Te3  1  -0.00000  0.00000  0.00000  1
 Tm  Tm1  1  0.62048  -0.00000  -0.00000  1
 Tm  Tm2  1  0.71625  0.71625  0.50001  1
 Tm  Tm3  1  0.28375  -0.00000  0.49999  1
 Tm  Tm4  1  0.37952  0.37952  0.00000  1
 Tm  Tm5  1  -0.00001  0.28375  0.50001  1
 Tm  Tm6  1  -0.00000  0.62049  -0.00000  1
