CIF file written using JARVIS-Tools package.
data_KHo2CuS4
_symmetry_space_group_name_H-M  'Cmcm'
_cell_length_a       3.92899
_cell_length_b       6.95015
_cell_length_c       13.6416
_cell_angle_alpha    90
_cell_angle_beta     90
_cell_angle_gamma    106.419

_symmetry_Int_Tables_number  63
_chemical_formula_structural  KHo2CuS4
_chemical_formula_sum  K2Ho4Cu2S8
_cell_volume  357.3211610963987
_cell_formula_units_Z  2
loop_
  _symmetry_equiv_pos_site_id
 _symmetry_equiv_pos_as_xyz
 1  'x, y, z'
loop_
 _atom_site_type_symbol
 _atom_site_label
 _atom_site_symmetry_multiplicity
 _atom_site_fract_x
 _atom_site_fract_y
 _atom_site_fract_z
 _atom_site_fract_occupancy
 Cu  Cu1  1  0.83797  0.67593  0.75000  1
 Cu  Cu2  1  0.16203  0.32407  0.25000  1
 Ho  Ho1  1  0.36593  0.73186  0.93644  1
 Ho  Ho2  1  0.63407  0.26814  0.43644  1
 Ho  Ho3  1  0.36593  0.73186  0.56356  1
 Ho  Ho4  1  0.63407  0.26814  0.06356  1
 K  K1  1  0.88932  0.77865  0.25000  1
 K  K2  1  0.11068  0.22135  0.75000  1
 S  S1  1  0.00000  0.00000  0.50000  1
 S  S2  1  0.00000  0.00000  0.00000  1
 S  S3  1  0.26453  0.52906  0.11075  1
 S  S4  1  0.73547  0.47094  0.88925  1
 S  S5  1  0.43399  0.86798  0.75000  1
 S  S6  1  0.26453  0.52906  0.38925  1
 S  S7  1  0.56601  0.13202  0.25000  1
 S  S8  1  0.73547  0.47094  0.61075  1
