CIF file written using JARVIS-Tools package.
data_Li2Fe2C3O9
_symmetry_space_group_name_H-M  'Amm2'
_cell_length_a       4.92253
_cell_length_b       5.96676
_cell_length_c       5.96676
_cell_angle_alpha    109.446
_cell_angle_beta     90
_cell_angle_gamma    90

_symmetry_Int_Tables_number  38
_chemical_formula_structural  Li2Fe2C3O9
_chemical_formula_sum  Li2Fe2C3O9
_cell_volume  165.2557535230045
_cell_formula_units_Z  1
loop_
  _symmetry_equiv_pos_site_id
 _symmetry_equiv_pos_as_xyz
 1  'x, y, z'
loop_
 _atom_site_type_symbol
 _atom_site_label
 _atom_site_symmetry_multiplicity
 _atom_site_fract_x
 _atom_site_fract_y
 _atom_site_fract_z
 _atom_site_fract_occupancy
 C  C1  1  0.00000  0.44472  0.85541  1
 C  C2  1  0.00000  0.85541  0.44472  1
 C  C3  1  0.50000  0.24287  0.24287  1
 Fe  Fe1  1  0.50000  0.25806  0.81402  1
 Fe  Fe2  1  0.50000  0.81402  0.25806  1
 Li  Li1  1  0.00000  0.91018  0.91018  1
 Li  Li2  1  0.50000  0.64376  0.64376  1
 O  O1  1  0.00000  0.24222  0.88642  1
 O  O2  1  0.00000  0.88642  0.24222  1
 O  O3  1  0.22837  0.54649  0.83911  1
 O  O4  1  0.22837  0.83911  0.54649  1
 O  O5  1  0.50000  0.21212  0.44492  1
 O  O6  1  0.50000  0.05059  0.05059  1
 O  O7  1  0.50000  0.44492  0.21212  1
 O  O8  1  0.77163  0.54649  0.83911  1
 O  O9  1  0.77163  0.83911  0.54649  1
