CIF file written using JARVIS-Tools package.
data_Li2VC2O6
_symmetry_space_group_name_H-M  'R-3'
_cell_length_a       4.75195
_cell_length_b       5.95534
_cell_length_c       4.75195
_cell_angle_alpha    113.513
_cell_angle_beta     60.0001
_cell_angle_gamma    113.513

_symmetry_Int_Tables_number  148
_chemical_formula_structural  Li2VC2O6
_chemical_formula_sum  Li2VC2O6
_cell_volume  103.36645491097968
_cell_formula_units_Z  1
loop_
  _symmetry_equiv_pos_site_id
 _symmetry_equiv_pos_as_xyz
 1  'x, y, z'
loop_
 _atom_site_type_symbol
 _atom_site_label
 _atom_site_symmetry_multiplicity
 _atom_site_fract_x
 _atom_site_fract_y
 _atom_site_fract_z
 _atom_site_fract_occupancy
 C  C1  1  0.41375  0.24124  0.41375  1
 C  C2  1  0.58625  0.75876  0.58625  1
 Li  Li1  1  0.20456  0.61369  0.20456  1
 Li  Li2  1  0.79544  0.38631  0.79544  1
 O  O1  1  0.30472  0.75703  0.60159  1
 O  O2  1  0.39841  0.24297  0.14928  1
 O  O3  1  0.14928  0.24297  0.69528  1
 O  O4  1  0.85072  0.75703  0.30472  1
 O  O5  1  0.60159  0.75703  0.85072  1
 O  O6  1  0.69528  0.24297  0.39841  1
 V  V1  1  0.00000  0.00000  0.00000  1
