CIF file written using JARVIS-Tools package.
data_SrCaSi
_symmetry_space_group_name_H-M  'Pnma'
_cell_length_a       4.91938
_cell_length_b       8.04772
_cell_length_c       9.07624
_cell_angle_alpha    90
_cell_angle_beta     90
_cell_angle_gamma    90

_symmetry_Int_Tables_number  62
_chemical_formula_structural  SrCaSi
_chemical_formula_sum  Sr4Ca4Si4
_cell_volume  359.32643328077853
_cell_formula_units_Z  4
loop_
  _symmetry_equiv_pos_site_id
 _symmetry_equiv_pos_as_xyz
 1  'x, y, z'
loop_
 _atom_site_type_symbol
 _atom_site_label
 _atom_site_symmetry_multiplicity
 _atom_site_fract_x
 _atom_site_fract_y
 _atom_site_fract_z
 _atom_site_fract_occupancy
 Ca  Ca1  1  0.75000  0.35173  0.42566  1
 Ca  Ca2  1  0.25000  0.14827  0.92566  1
 Ca  Ca3  1  0.75000  0.85173  0.07434  1
 Ca  Ca4  1  0.25000  0.64827  0.57434  1
 Si  Si1  1  0.25000  0.76745  0.89460  1
 Si  Si2  1  0.25000  0.26745  0.60540  1
 Si  Si3  1  0.75000  0.23255  0.10540  1
 Si  Si4  1  0.75000  0.73255  0.39460  1
 Sr  Sr1  1  0.25000  0.52153  0.17998  1
 Sr  Sr2  1  0.25000  0.02153  0.32002  1
 Sr  Sr3  1  0.75000  0.97847  0.67998  1
 Sr  Sr4  1  0.75000  0.47847  0.82002  1
