CIF file written using JARVIS-Tools package.
data_CaCrO2
_symmetry_space_group_name_H-M  'C2/m'
_cell_length_a       3.06817
_cell_length_b       8.64772
_cell_length_c       8.75251
_cell_angle_alpha    85.2856
_cell_angle_beta     79.9058
_cell_angle_gamma    79.7882

_symmetry_Int_Tables_number  12
_chemical_formula_structural  CaCrO2
_chemical_formula_sum  Ca4Cr4O8
_cell_volume  224.6972942875342
_cell_formula_units_Z  4
loop_
  _symmetry_equiv_pos_site_id
 _symmetry_equiv_pos_as_xyz
 1  'x, y, z'
loop_
 _atom_site_type_symbol
 _atom_site_label
 _atom_site_symmetry_multiplicity
 _atom_site_fract_x
 _atom_site_fract_y
 _atom_site_fract_z
 _atom_site_fract_occupancy
 Ca  Ca1  1  0.38006  0.30284  0.93705  1
 Ca  Ca2  1  0.59589  0.72537  0.08304  1
 Ca  Ca3  1  0.79174  0.09748  0.31910  1
 Ca  Ca4  1  0.18420  0.93073  0.70098  1
 Cr  Cr1  1  0.81710  0.60317  0.76275  1
 Cr  Cr2  1  0.56794  0.25082  0.61342  1
 Cr  Cr3  1  0.40800  0.77738  0.40667  1
 Cr  Cr4  1  0.15885  0.42503  0.25733  1
 O  O1  1  0.56775  0.55808  0.30654  1
 O  O2  1  0.82440  0.78660  0.56470  1
 O  O3  1  0.15155  0.24160  0.45539  1
 O  O4  1  0.40820  0.47012  0.71354  1
 O  O5  1  0.19596  0.72918  0.87909  1
 O  O6  1  0.02287  0.18482  0.76940  1
 O  O7  1  0.78000  0.29901  0.14100  1
 O  O8  1  0.95309  0.84338  0.25068  1
