CIF file written using JARVIS-Tools package.
data_MgH4N2O8
_symmetry_space_group_name_H-M  'P2_1/c'
_cell_length_a       5.64608
_cell_length_b       5.9661
_cell_length_c       8.54658
_cell_angle_alpha    90
_cell_angle_beta     90.2046
_cell_angle_gamma    90

_symmetry_Int_Tables_number  14
_chemical_formula_structural  MgH4N2O8
_chemical_formula_sum  Mg2H8N4O6
_cell_volume  287.89054920477776
_cell_formula_units_Z  2
loop_
  _symmetry_equiv_pos_site_id
 _symmetry_equiv_pos_as_xyz
 1  'x, y, z'
loop_
 _atom_site_type_symbol
 _atom_site_label
 _atom_site_symmetry_multiplicity
 _atom_site_fract_x
 _atom_site_fract_y
 _atom_site_fract_z
 _atom_site_fract_occupancy
 H  H1  1  0.58116  0.27611  -0.01147  1
 H  H2  1  0.21809  0.83456  0.11080  1
 H  H3  1  0.78191  0.33455  0.38920  1
 H  H4  1  0.41884  0.77612  0.51147  1
 H  H5  1  0.58116  0.22389  0.48853  1
 H  H6  1  0.21809  0.66545  0.61080  1
 H  H7  1  0.78191  0.16545  0.88920  1
 H  H8  1  0.41884  0.72389  0.01147  1
 Mg  Mg1  1  0.00000  0.50000  0.00000  1
 Mg  Mg2  1  1.00000  0.00000  0.50000  1
 N  N1  1  0.25267  0.35080  0.30055  1
 N  N2  1  0.74733  0.85080  0.19945  1
 N  N3  1  0.25267  0.14920  0.80055  1
 N  N4  1  0.74733  0.64920  0.69945  1
 O  O1  1  0.94842  0.88520  0.26468  1
 O  O2  1  0.25683  0.26573  0.92731  1
 O  O3  1  0.74317  0.73427  0.07269  1
 O  O4  1  0.05158  0.38520  0.23532  1
 O  O5  1  0.43838  0.42541  0.24503  1
 O  O6  1  0.56162  0.92541  0.25497  1
 O  O7  1  0.24619  0.75090  0.01337  1
 O  O8  1  0.24619  0.74910  0.51337  1
 O  O9  1  0.74317  0.76573  0.57269  1
 O  O10  1  0.05158  0.11480  0.73532  1
 O  O11  1  0.43838  0.07459  0.74503  1
 O  O12  1  0.56162  0.57459  0.75497  1
 O  O13  1  0.94842  0.61480  0.76468  1
 O  O14  1  0.25683  0.23427  0.42731  1
 O  O15  1  0.75381  0.25090  0.48663  1
 O  O16  1  0.75381  0.24910  0.98663  1
