CIF file written using JARVIS-Tools package.
data_VF4
_symmetry_space_group_name_H-M  'Cmmm'
_cell_length_a       4.62256
_cell_length_b       4.62255
_cell_length_c       3.04704
_cell_angle_alpha    89.9432
_cell_angle_beta     90.0567
_cell_angle_gamma    76.2854

_symmetry_Int_Tables_number  65
_chemical_formula_structural  VF4
_chemical_formula_sum  VF4
_cell_volume  63.25288911708177
_cell_formula_units_Z  1
loop_
  _symmetry_equiv_pos_site_id
 _symmetry_equiv_pos_as_xyz
 1  'x, y, z'
loop_
 _atom_site_type_symbol
 _atom_site_label
 _atom_site_symmetry_multiplicity
 _atom_site_fract_x
 _atom_site_fract_y
 _atom_site_fract_z
 _atom_site_fract_occupancy
 F  F1  1  0.24170  0.24170  0.00000  1
 F  F2  1  0.21514  0.78486  0.50062  1
 F  F3  1  0.78486  0.21514  0.49938  1
 F  F4  1  0.75830  0.75830  -0.00000  1
 V  V1  1  0.00000  0.00000  0.00000  1
