CIF file written using JARVIS-Tools package.
data_CuI
_symmetry_space_group_name_H-M  'R-3m'
_cell_length_a       7.55752
_cell_length_b       7.55752
_cell_length_c       7.55753
_cell_angle_alpha    33.436
_cell_angle_beta     33.4359
_cell_angle_gamma    33.436

_symmetry_Int_Tables_number  166
_chemical_formula_structural  CuI
_chemical_formula_sum  Cu2I2
_cell_volume  116.7090440076519
_cell_formula_units_Z  2
loop_
  _symmetry_equiv_pos_site_id
 _symmetry_equiv_pos_as_xyz
 1  'x, y, z'
loop_
 _atom_site_type_symbol
 _atom_site_label
 _atom_site_symmetry_multiplicity
 _atom_site_fract_x
 _atom_site_fract_y
 _atom_site_fract_z
 _atom_site_fract_occupancy
 Cu  Cu1  1  0.11709  0.11709  0.11709  1
 Cu  Cu2  1  0.88291  0.88291  0.88291  1
 I  I1  1  0.00000  0.00000  0.00000  1
 I  I2  1  0.50000  0.50000  0.50000  1
