CIF file written using JARVIS-Tools package.
data_VCo3
_symmetry_space_group_name_H-M  'P6/mmm'
_cell_length_a       8.37456
_cell_length_b       8.37456
_cell_length_c       4.63527
_cell_angle_alpha    90
_cell_angle_beta     90
_cell_angle_gamma    120

_symmetry_Int_Tables_number  191
_chemical_formula_structural  VCo3
_chemical_formula_sum  V6Co8
_cell_volume  281.5334150992838
_cell_formula_units_Z  6
loop_
  _symmetry_equiv_pos_site_id
 _symmetry_equiv_pos_as_xyz
 1  'x, y, z'
loop_
 _atom_site_type_symbol
 _atom_site_label
 _atom_site_symmetry_multiplicity
 _atom_site_fract_x
 _atom_site_fract_y
 _atom_site_fract_z
 _atom_site_fract_occupancy
 Co  Co1  1  0.66667  0.83333  0.25002  1
 Co  Co2  1  0.50000  0.50000  0.75004  1
 Co  Co3  1  0.33333  0.16667  0.25002  1
 Co  Co4  1  0.83333  0.16667  0.25002  1
 Co  Co5  1  0.50000  0.00000  0.24996  1
 Co  Co6  1  0.83333  0.16667  0.74998  1
 Co  Co7  1  -0.00000  0.50000  0.75004  1
 Co  Co8  1  0.16667  0.33333  0.25002  1
 Co  Co9  1  0.33333  0.16667  0.74998  1
 Co  Co10  1  0.50000  0.50000  0.24996  1
 Co  Co11  1  0.66667  0.83333  0.74998  1
 Co  Co12  1  -0.00000  0.50000  0.24996  1
 Co  Co13  1  0.50000  0.00000  0.75004  1
 Co  Co14  1  0.16667  0.83333  0.74998  1
 Co  Co15  1  0.16667  0.83333  0.25002  1
 Co  Co16  1  0.16667  0.33333  0.74998  1
 Co  Co17  1  0.83333  0.66667  0.74998  1
 Co  Co18  1  0.83333  0.66667  0.25002  1
 V  V1  1  0.33333  0.66667  0.25000  1
 V  V2  1  0.00000  0.00000  0.25000  1
 V  V3  1  0.66667  0.33333  0.75000  1
 V  V4  1  0.00000  0.00000  0.75000  1
 V  V5  1  0.33333  0.66667  0.75000  1
 V  V6  1  0.66667  0.33333  0.25000  1
