CIF file written using JARVIS-Tools package.
data_Li2CrCuO4
_symmetry_space_group_name_H-M  'Imma'
_cell_length_a       6.06097
_cell_length_b       6.06096
_cell_length_c       5.61721
_cell_angle_alpha    117.606
_cell_angle_beta     117.606
_cell_angle_gamma    97.7158

_symmetry_Int_Tables_number  74
_chemical_formula_structural  Li2CrCuO4
_chemical_formula_sum  Li4Cr2Cu2O8
_cell_volume  145.1564227140339
_cell_formula_units_Z  2
loop_
  _symmetry_equiv_pos_site_id
 _symmetry_equiv_pos_as_xyz
 1  'x, y, z'
loop_
 _atom_site_type_symbol
 _atom_site_label
 _atom_site_symmetry_multiplicity
 _atom_site_fract_x
 _atom_site_fract_y
 _atom_site_fract_z
 _atom_site_fract_occupancy
 Cr  Cr1  1  0.00000  0.50000  0.00000  1
 Cr  Cr2  1  0.50000  -0.00000  0.50000  1
 Cu  Cu1  1  -0.00000  -0.00000  0.50000  1
 Cu  Cu2  1  0.00000  0.00000  0.00000  1
 Li  Li1  1  -0.00000  0.50000  0.50000  1
 Li  Li2  1  0.50000  0.50000  0.50000  1
 Li  Li3  1  0.50000  -0.00000  0.00000  1
 Li  Li4  1  0.50000  0.50000  0.00000  1
 O  O1  1  0.26420  0.73581  0.01506  1
 O  O2  1  0.27106  0.19927  0.48516  1
 O  O3  1  0.26419  0.73580  0.48494  1
 O  O4  1  0.80073  0.72894  0.01484  1
 O  O5  1  0.19927  0.27106  0.98516  1
 O  O6  1  0.73581  0.26420  0.51506  1
 O  O7  1  0.72894  0.80073  0.51484  1
 O  O8  1  0.73580  0.26419  0.98494  1
