CIF file written using JARVIS-Tools package.
data_ZnMo2O4
_symmetry_space_group_name_H-M  'Imma'
_cell_length_a       5.9542
_cell_length_b       5.95419
_cell_length_c       5.39941
_cell_angle_alpha    63.0372
_cell_angle_beta     63.0372
_cell_angle_gamma    77.0222

_symmetry_Int_Tables_number  74
_chemical_formula_structural  ZnMo2O4
_chemical_formula_sum  Zn2Mo4O8
_cell_volume  152.02558224097572
_cell_formula_units_Z  2
loop_
  _symmetry_equiv_pos_site_id
 _symmetry_equiv_pos_as_xyz
 1  'x, y, z'
loop_
 _atom_site_type_symbol
 _atom_site_label
 _atom_site_symmetry_multiplicity
 _atom_site_fract_x
 _atom_site_fract_y
 _atom_site_fract_z
 _atom_site_fract_occupancy
 Mo  Mo1  1  0.10324  0.10324  -0.10324  1
 Mo  Mo2  1  0.14676  0.14676  0.35324  1
 Mo  Mo3  1  0.62500  0.62500  0.12500  1
 Mo  Mo4  1  0.62500  0.62500  0.62500  1
 O  O1  1  0.34698  0.34698  0.40693  1
 O  O2  1  0.41264  0.85189  0.36774  1
 O  O3  1  0.34698  0.34698  0.89911  1
 O  O4  1  0.85189  0.41264  0.36774  1
 O  O5  1  0.39811  0.83736  0.88226  1
 O  O6  1  0.83736  0.39811  0.88226  1
 O  O7  1  0.90302  0.90302  0.35089  1
 O  O8  1  0.90302  0.90302  0.84307  1
 Zn  Zn1  1  0.12500  0.62500  0.62500  1
 Zn  Zn2  1  0.62500  0.12500  0.62500  1
