CIF file written using JARVIS-Tools package.
data_TcH4NO4
_symmetry_space_group_name_H-M  'I4_1/a'
_cell_length_a       6.00621
_cell_length_b       6.00621
_cell_length_c       7.49239
_cell_angle_alpha    113.63
_cell_angle_beta     113.629
_cell_angle_gamma    90

_symmetry_Int_Tables_number  88
_chemical_formula_structural  TcH4NO4
_chemical_formula_sum  Tc2H8N2O8
_cell_volume  222.66681944714318
_cell_formula_units_Z  2
loop_
  _symmetry_equiv_pos_site_id
 _symmetry_equiv_pos_as_xyz
 1  'x, y, z'
loop_
 _atom_site_type_symbol
 _atom_site_label
 _atom_site_symmetry_multiplicity
 _atom_site_fract_x
 _atom_site_fract_y
 _atom_site_fract_z
 _atom_site_fract_occupancy
 H  H1  1  0.29263  0.12885  0.84929  1
 H  H2  1  0.27956  0.20737  0.65071  1
 H  H3  1  0.72044  0.79263  0.34929  1
 H  H4  1  0.70737  0.87115  0.15071  1
 H  H5  1  0.55665  0.22044  0.84929  1
 H  H6  1  0.37115  0.94335  0.65071  1
 H  H7  1  0.44335  0.77956  0.15071  1
 H  H8  1  0.62885  0.05665  0.34929  1
 N  N1  1  0.62500  0.87500  0.25000  1
 N  N2  1  0.37500  0.12500  0.75000  1
 O  O1  1  0.24712  0.17349  0.09027  1
 O  O2  1  0.08321  0.25288  0.40973  1
 O  O3  1  0.32651  0.65685  0.40973  1
 O  O4  1  0.15685  0.58321  0.90973  1
 O  O5  1  0.75288  0.82651  0.90973  1
 O  O6  1  0.84315  0.41679  0.09027  1
 O  O7  1  0.67349  0.34315  0.59027  1
 O  O8  1  0.91679  0.74712  0.59027  1
 Tc  Tc1  1  0.87500  0.62500  0.75000  1
 Tc  Tc2  1  0.12500  0.37500  0.25000  1
