CIF file written using JARVIS-Tools package.
data_NdRh
_symmetry_space_group_name_H-M  'Cmcm'
_cell_length_a       3.95559
_cell_length_b       4.22277
_cell_length_c       5.84372
_cell_angle_alpha    90
_cell_angle_beta     70.2177
_cell_angle_gamma    90

_symmetry_Int_Tables_number  63
_chemical_formula_structural  NdRh
_chemical_formula_sum  Nd2Rh2
_cell_volume  91.8504757858929
_cell_formula_units_Z  2
loop_
  _symmetry_equiv_pos_site_id
 _symmetry_equiv_pos_as_xyz
 1  'x, y, z'
loop_
 _atom_site_type_symbol
 _atom_site_label
 _atom_site_symmetry_multiplicity
 _atom_site_fract_x
 _atom_site_fract_y
 _atom_site_fract_z
 _atom_site_fract_occupancy
 Nd  Nd1  1  0.14141  0.75000  0.71717  1
 Nd  Nd2  1  0.85859  0.25000  0.28283  1
 Rh  Rh1  1  0.41425  0.75000  0.17151  1
 Rh  Rh2  1  0.58575  0.25000  0.82849  1
