CIF file written using JARVIS-Tools package.
data_BClO2F4
_symmetry_space_group_name_H-M  'Cc'
_cell_length_a       5.15307
_cell_length_b       5.15307
_cell_length_c       9.57347
_cell_angle_alpha    86.0072
_cell_angle_beta     93.9928
_cell_angle_gamma    56.4111

_symmetry_Int_Tables_number  9
_chemical_formula_structural  BClO2F4
_chemical_formula_sum  B2Cl2O4F8
_cell_volume  209.45708520605777
_cell_formula_units_Z  2
loop_
  _symmetry_equiv_pos_site_id
 _symmetry_equiv_pos_as_xyz
 1  'x, y, z'
loop_
 _atom_site_type_symbol
 _atom_site_label
 _atom_site_symmetry_multiplicity
 _atom_site_fract_x
 _atom_site_fract_y
 _atom_site_fract_z
 _atom_site_fract_occupancy
 B  B1  1  0.40951  0.45050  0.51561  1
 B  B2  1  0.54950  0.59049  0.01561  1
 Cl  Cl1  1  0.88550  0.67233  0.75128  1
 Cl  Cl2  1  0.32767  0.11450  0.25128  1
 F  F1  1  0.14283  0.71537  0.56412  1
 F  F2  1  0.49831  0.64215  0.86312  1
 F  F3  1  0.28463  0.85717  0.06412  1
 F  F4  1  0.35785  0.50169  0.36312  1
 F  F5  1  0.42566  0.17661  0.56079  1
 F  F6  1  0.68098  0.43191  0.56284  1
 F  F7  1  0.82339  0.57434  0.06079  1
 F  F8  1  0.56809  0.31902  0.06284  1
 O  O1  1  0.13277  0.36113  0.80958  1
 O  O2  1  0.85759  0.92295  0.81809  1
 O  O3  1  0.63887  0.86723  0.30958  1
 O  O4  1  0.07705  0.14241  0.31809  1
