CIF file written using JARVIS-Tools package.
data_MgTeH12O9
_symmetry_space_group_name_H-M  'R3'
_cell_length_a       5.96428
_cell_length_b       5.96428
_cell_length_c       5.96428
_cell_angle_alpha    98.2705
_cell_angle_beta     98.2705
_cell_angle_gamma    98.2705

_symmetry_Int_Tables_number  146
_chemical_formula_structural  MgTeH12O9
_chemical_formula_sum  MgTeH2O9
_cell_volume  204.82119071309202
_cell_formula_units_Z  1
loop_
  _symmetry_equiv_pos_site_id
 _symmetry_equiv_pos_as_xyz
 1  'x, y, z'
loop_
 _atom_site_type_symbol
 _atom_site_label
 _atom_site_symmetry_multiplicity
 _atom_site_fract_x
 _atom_site_fract_y
 _atom_site_fract_z
 _atom_site_fract_occupancy
 H  H1  1  0.81458  0.38431  0.17600  1
 H  H2  1  0.53896  0.95749  0.03190  1
 H  H3  1  0.03190  0.53896  0.95749  1
 H  H4  1  0.95749  0.03190  0.53896  1
 H  H5  1  0.63231  0.73735  0.12737  1
 H  H6  1  0.12737  0.63231  0.73735  1
 H  H7  1  0.17600  0.81458  0.38431  1
 H  H8  1  0.42278  0.28310  0.08013  1
 H  H9  1  0.08013  0.42278  0.28310  1
 H  H10  1  0.28310  0.08013  0.42278  1
 H  H11  1  0.38431  0.17600  0.81458  1
 H  H12  1  0.73735  0.12737  0.63231  1
 Mg  Mg1  1  0.00296  0.00296  0.00296  1
 O  O1  1  0.14181  0.96521  0.34011  1
 O  O2  1  0.96521  0.34011  0.14181  1
 O  O3  1  0.34011  0.14181  0.96521  1
 O  O4  1  0.87473  0.05073  0.67235  1
 O  O5  1  0.05073  0.67235  0.87473  1
 O  O6  1  0.67235  0.87473  0.05073  1
 O  O7  1  0.50151  0.23925  0.58975  1
 O  O8  1  0.23925  0.58975  0.50151  1
 O  O9  1  0.58975  0.50151  0.23925  1
 Te  Te1  1  0.55339  0.55339  0.55339  1
