CIF file written using JARVIS-Tools package.
data_Li3NiO3
_symmetry_space_group_name_H-M  'P4_2/mnm'
_cell_length_a       8.59524
_cell_length_b       8.59524
_cell_length_c       3.62606
_cell_angle_alpha    90
_cell_angle_beta     90
_cell_angle_gamma    90

_symmetry_Int_Tables_number  136
_chemical_formula_structural  Li3NiO3
_chemical_formula_sum  Li2Ni4O2
_cell_volume  267.88652874374327
_cell_formula_units_Z  4
loop_
  _symmetry_equiv_pos_site_id
 _symmetry_equiv_pos_as_xyz
 1  'x, y, z'
loop_
 _atom_site_type_symbol
 _atom_site_label
 _atom_site_symmetry_multiplicity
 _atom_site_fract_x
 _atom_site_fract_y
 _atom_site_fract_z
 _atom_site_fract_occupancy
 Li  Li1  1  0.36526  0.10430  0.50000  1
 Li  Li2  1  0.60430  0.13474  0.00000  1
 Li  Li3  1  0.16378  0.16378  0.00000  1
 Li  Li4  1  0.66378  0.33622  0.50000  1
 Li  Li5  1  0.10430  0.36526  0.50000  1
 Li  Li6  1  0.86526  0.39570  0.00000  1
 Li  Li7  1  0.13474  0.60430  0.00000  1
 Li  Li8  1  0.89570  0.63474  0.50000  1
 Li  Li9  1  0.33622  0.66378  0.50000  1
 Li  Li10  1  0.83622  0.83622  0.00000  1
 Li  Li11  1  0.39570  0.86526  0.00000  1
 Li  Li12  1  0.63474  0.89570  0.50000  1
 Ni  Ni1  1  0.88428  0.11572  0.50000  1
 Ni  Ni2  1  0.38428  0.38428  0.00000  1
 Ni  Ni3  1  0.61572  0.61572  0.00000  1
 Ni  Ni4  1  0.11572  0.88428  0.50000  1
 O  O1  1  0.10064  0.10064  0.50000  1
 O  O2  1  0.67253  0.11292  0.50000  1
 O  O3  1  0.38708  0.17253  0.00000  1
 O  O4  1  0.88708  0.32747  0.50000  1
 O  O5  1  0.17253  0.38708  0.00000  1
 O  O6  1  0.60064  0.39936  0.00000  1
 O  O7  1  0.39936  0.60064  0.00000  1
 O  O8  1  0.82747  0.61292  0.00000  1
 O  O9  1  0.11292  0.67253  0.50000  1
 O  O10  1  0.61292  0.82747  0.00000  1
 O  O11  1  0.32747  0.88708  0.50000  1
 O  O12  1  0.89936  0.89936  0.50000  1
