CIF file written using JARVIS-Tools package.
data_InSb2Se4Br
_symmetry_space_group_name_H-M  'C2/m'
_cell_length_a       4.06352
_cell_length_b       10.6968
_cell_length_c       11.777
_cell_angle_alpha    64.7202
_cell_angle_beta     80.0662
_cell_angle_gamma    79.0478

_symmetry_Int_Tables_number  12
_chemical_formula_structural  InSb2Se4Br
_chemical_formula_sum  In2Sb4Se8Br2
_cell_volume  452.0354473334787
_cell_formula_units_Z  2
loop_
  _symmetry_equiv_pos_site_id
 _symmetry_equiv_pos_as_xyz
 1  'x, y, z'
loop_
 _atom_site_type_symbol
 _atom_site_label
 _atom_site_symmetry_multiplicity
 _atom_site_fract_x
 _atom_site_fract_y
 _atom_site_fract_z
 _atom_site_fract_occupancy
 Br  Br1  1  0.10216  0.32737  0.46819  1
 Br  Br2  1  0.89784  0.67263  0.53181  1
 In  In1  1  0.66241  0.11224  0.56282  1
 In  In2  1  0.33759  0.88776  0.43718  1
 Sb  Sb1  1  0.70357  0.68782  0.90497  1
 Sb  Sb2  1  0.29643  0.31218  0.09503  1
 Sb  Sb3  1  0.04861  0.67811  0.22471  1
 Sb  Sb4  1  0.95139  0.32189  0.77529  1
 Se  Se1  1  0.09807  0.82820  0.97562  1
 Se  Se2  1  0.67886  0.49920  0.14311  1
 Se  Se3  1  0.32114  0.50080  0.85689  1
 Se  Se4  1  0.46282  0.86068  0.21370  1
 Se  Se5  1  0.21379  0.91620  0.65619  1
 Se  Se6  1  0.53718  0.13932  0.78630  1
 Se  Se7  1  0.78621  0.08380  0.34381  1
 Se  Se8  1  0.90193  0.17180  0.02438  1
