CIF file written using JARVIS-Tools package.
data_YbBr3
_symmetry_space_group_name_H-M  'R-3'
_cell_length_a       6.72014
_cell_length_b       6.72014
_cell_length_c       6.72014
_cell_angle_alpha    65.2744
_cell_angle_beta     65.2744
_cell_angle_gamma    65.2744

_symmetry_Int_Tables_number  148
_chemical_formula_structural  YbBr3
_chemical_formula_sum  Yb2Br6
_cell_volume  239.25168646116478
_cell_formula_units_Z  2
loop_
  _symmetry_equiv_pos_site_id
 _symmetry_equiv_pos_as_xyz
 1  'x, y, z'
loop_
 _atom_site_type_symbol
 _atom_site_label
 _atom_site_symmetry_multiplicity
 _atom_site_fract_x
 _atom_site_fract_y
 _atom_site_fract_z
 _atom_site_fract_occupancy
 Br  Br1  1  0.12500  0.74970  0.37189  1
 Br  Br2  1  0.37189  0.12500  0.74970  1
 Br  Br3  1  0.74970  0.37189  0.12500  1
 Br  Br4  1  0.25030  0.62811  0.87500  1
 Br  Br5  1  0.62811  0.87500  0.25030  1
 Br  Br6  1  0.87500  0.25030  0.62811  1
 Yb  Yb1  1  0.19638  0.19638  0.19638  1
 Yb  Yb2  1  0.80362  0.80362  0.80362  1
