CIF file written using JARVIS-Tools package.
data_PtCl2
_symmetry_space_group_name_H-M  'P-1'
_cell_length_a       4.65233
_cell_length_b       7.39837
_cell_length_c       4.49779
_cell_angle_alpha    105.77
_cell_angle_beta     103.052
_cell_angle_gamma    95.1688

_symmetry_Int_Tables_number  2
_chemical_formula_structural  PtCl2
_chemical_formula_sum  Pt2Cl4
_cell_volume  143.22971161593446
_cell_formula_units_Z  2
loop_
  _symmetry_equiv_pos_site_id
 _symmetry_equiv_pos_as_xyz
 1  'x, y, z'
loop_
 _atom_site_type_symbol
 _atom_site_label
 _atom_site_symmetry_multiplicity
 _atom_site_fract_x
 _atom_site_fract_y
 _atom_site_fract_z
 _atom_site_fract_occupancy
 Cl  Cl1  1  0.24973  0.85679  0.11202  1
 Cl  Cl2  1  0.24940  0.34927  0.53159  1
 Cl  Cl3  1  0.75061  0.65073  0.46841  1
 Cl  Cl4  1  0.75026  0.14322  0.88798  1
 Pt  Pt1  1  0.22020  0.59892  0.28750  1
 Pt  Pt2  1  0.77980  0.40108  0.71250  1
