CIF file written using JARVIS-Tools package.
data_Li4CrO4
_symmetry_space_group_name_H-M  'P-1'
_cell_length_a       5.13211
_cell_length_b       5.17687
_cell_length_c       7.64482
_cell_angle_alpha    109.365
_cell_angle_beta     83.2329
_cell_angle_gamma    112.424

_symmetry_Int_Tables_number  2
_chemical_formula_structural  Li4CrO4
_chemical_formula_sum  Li8Cr2O8
_cell_volume  177.12065128847803
_cell_formula_units_Z  2
loop_
  _symmetry_equiv_pos_site_id
 _symmetry_equiv_pos_as_xyz
 1  'x, y, z'
loop_
 _atom_site_type_symbol
 _atom_site_label
 _atom_site_symmetry_multiplicity
 _atom_site_fract_x
 _atom_site_fract_y
 _atom_site_fract_z
 _atom_site_fract_occupancy
 Cr  Cr1  1  0.21903  0.16142  0.77592  1
 Cr  Cr2  1  0.78097  0.83858  0.22408  1
 Li  Li1  1  0.25852  0.76005  0.99533  1
 Li  Li2  1  0.78198  0.60498  0.79054  1
 Li  Li3  1  0.74728  0.08525  0.58228  1
 Li  Li4  1  0.74148  0.23995  0.00467  1
 Li  Li5  1  0.75937  0.49285  0.43784  1
 Li  Li6  1  0.25272  0.91475  0.41772  1
 Li  Li7  1  0.21802  0.39502  0.20946  1
 Li  Li8  1  0.24063  0.50715  0.56216  1
 O  O1  1  -0.00102  0.36975  0.80552  1
 O  O2  1  0.66025  0.83953  0.01822  1
 O  O3  1  0.00102  0.63025  0.19448  1
 O  O4  1  0.51647  0.69955  0.38433  1
 O  O5  1  0.96993  0.19758  0.37465  1
 O  O6  1  0.03007  0.80242  0.62535  1
 O  O7  1  0.48353  0.30045  0.61567  1
 O  O8  1  0.33975  0.16047  0.98178  1
