CIF file written using JARVIS-Tools package.
data_SnO2
_symmetry_space_group_name_H-M  'Cmcm'
_cell_length_a       3.20873
_cell_length_b       5.23828
_cell_length_c       10.4024
_cell_angle_alpha    90
_cell_angle_beta     90
_cell_angle_gamma    107.835

_symmetry_Int_Tables_number  63
_chemical_formula_structural  SnO2
_chemical_formula_sum  Sn4O8
_cell_volume  166.44336498370063
_cell_formula_units_Z  4
loop_
  _symmetry_equiv_pos_site_id
 _symmetry_equiv_pos_as_xyz
 1  'x, y, z'
loop_
 _atom_site_type_symbol
 _atom_site_label
 _atom_site_symmetry_multiplicity
 _atom_site_fract_x
 _atom_site_fract_y
 _atom_site_fract_z
 _atom_site_fract_occupancy
 O  O1  1  0.23275  0.46549  0.39714  1
 O  O2  1  0.76725  0.53451  0.60286  1
 O  O3  1  0.76725  0.53451  0.89714  1
 O  O4  1  0.23275  0.46549  0.10286  1
 O  O5  1  0.95367  0.90733  0.25000  1
 O  O6  1  0.04633  0.09267  0.75000  1
 O  O7  1  0.50000  0.00000  0.00000  1
 O  O8  1  0.50000  0.00000  0.50000  1
 Sn  Sn1  1  0.86300  0.72600  0.08165  1
 Sn  Sn2  1  0.13700  0.27400  0.91835  1
 Sn  Sn3  1  0.86300  0.72600  0.41835  1
 Sn  Sn4  1  0.13700  0.27400  0.58165  1
