CIF file written using JARVIS-Tools package.
data_Na2Nd2Ti3O10
_symmetry_space_group_name_H-M  'I4/mmm'
_cell_length_a       3.84108
_cell_length_b       3.84108
_cell_length_c       14.5701
_cell_angle_alpha    97.5745
_cell_angle_beta     97.5745
_cell_angle_gamma    90

_symmetry_Int_Tables_number  139
_chemical_formula_structural  Na2Nd2Ti3O10
_chemical_formula_sum  Na2Nd2Ti3O0
_cell_volume  211.19714337168043
_cell_formula_units_Z  1
loop_
  _symmetry_equiv_pos_site_id
 _symmetry_equiv_pos_as_xyz
 1  'x, y, z'
loop_
 _atom_site_type_symbol
 _atom_site_label
 _atom_site_symmetry_multiplicity
 _atom_site_fract_x
 _atom_site_fract_y
 _atom_site_fract_z
 _atom_site_fract_occupancy
 Na  Na1  1  0.28843  0.28843  0.57687  1
 Na  Na2  1  0.71157  0.71157  0.42313  1
 Nd  Nd1  1  0.42495  0.42495  0.84989  1
 Nd  Nd2  1  0.57505  0.57505  0.15011  1
 O  O1  1  0.36802  0.86802  0.73603  1
 O  O2  1  0.13198  0.63198  0.26397  1
 O  O3  1  0.63198  0.13198  0.26397  1
 O  O4  1  0.79136  0.79136  0.58273  1
 O  O5  1  0.20864  0.20864  0.41727  1
 O  O6  1  0.86802  0.36802  0.73603  1
 O  O7  1  0.06749  0.06749  0.13498  1
 O  O8  1  0.50000  0.00000  -0.00000  1
 O  O9  1  0.00000  0.50000  -0.00000  1
 O  O10  1  0.93251  0.93251  0.86502  1
 Ti  Ti1  1  0.85289  0.85289  0.70578  1
 Ti  Ti2  1  0.14711  0.14711  0.29422  1
 Ti  Ti3  1  0.00000  0.00000  0.00000  1
