CIF file written using JARVIS-Tools package.
data_Te2Mo
_symmetry_space_group_name_H-M  'Pmn2_1'
_cell_length_a       3.52644
_cell_length_b       6.37084
_cell_length_c       14.1048
_cell_angle_alpha    90
_cell_angle_beta     90
_cell_angle_gamma    90

_symmetry_Int_Tables_number  31
_chemical_formula_structural  Te2Mo
_chemical_formula_sum  Te8Mo4
_cell_volume  316.8833333891558
_cell_formula_units_Z  4
loop_
  _symmetry_equiv_pos_site_id
 _symmetry_equiv_pos_as_xyz
 1  'x, y, z'
loop_
 _atom_site_type_symbol
 _atom_site_label
 _atom_site_symmetry_multiplicity
 _atom_site_fract_x
 _atom_site_fract_y
 _atom_site_fract_z
 _atom_site_fract_occupancy
 Mo  Mo1  1  0.00000  0.57335  0.50030  1
 Mo  Mo2  1  0.50000  0.42665  0.00030  1
 Mo  Mo3  1  0.00000  0.06753  0.01477  1
 Mo  Mo4  1  0.50000  0.93247  0.51477  1
 Te  Te1  1  0.00000  0.83132  0.65453  1
 Te  Te2  1  0.50000  0.16868  0.15453  1
 Te  Te3  1  0.00000  0.67365  0.11059  1
 Te  Te4  1  0.50000  0.32635  0.61059  1
 Te  Te5  1  0.00000  0.32567  0.86055  1
 Te  Te6  1  0.50000  0.67433  0.36055  1
 Te  Te7  1  0.00000  0.17949  0.40446  1
 Te  Te8  1  0.50000  0.82051  0.90446  1
