CIF file written using JARVIS-Tools package.
data_NaDyS2
_symmetry_space_group_name_H-M  'R-3m'
_cell_length_a       3.96782
_cell_length_b       3.96782
_cell_length_c       6.98909
_cell_angle_alpha    73.5094
_cell_angle_beta     73.5094
_cell_angle_gamma    60

_symmetry_Int_Tables_number  166
_chemical_formula_structural  NaDyS2
_chemical_formula_sum  NaDyS2
_cell_volume  90.02745598307423
_cell_formula_units_Z  1
loop_
  _symmetry_equiv_pos_site_id
 _symmetry_equiv_pos_as_xyz
 1  'x, y, z'
loop_
 _atom_site_type_symbol
 _atom_site_label
 _atom_site_symmetry_multiplicity
 _atom_site_fract_x
 _atom_site_fract_y
 _atom_site_fract_z
 _atom_site_fract_occupancy
 Dy  Dy1  1  0.00000  0.00000  0.00000  1
 Na  Na1  1  0.50000  0.50000  0.50000  1
 S  S1  1  0.74323  0.74323  0.77031  1
 S  S2  1  0.25677  0.25677  0.22969  1
