CIF file written using JARVIS-Tools package.
data_Pb2Au
_symmetry_space_group_name_H-M  'I4/mcm'
_cell_length_a       5.76567
_cell_length_b       6.00765
_cell_length_c       6.00765
_cell_angle_alpha    76.6872
_cell_angle_beta     61.3237
_cell_angle_gamma    61.3237

_symmetry_Int_Tables_number  140
_chemical_formula_structural  Pb2Au
_chemical_formula_sum  Pb4Au2
_cell_volume  160.1766992509279
_cell_formula_units_Z  2
loop_
  _symmetry_equiv_pos_site_id
 _symmetry_equiv_pos_as_xyz
 1  'x, y, z'
loop_
 _atom_site_type_symbol
 _atom_site_label
 _atom_site_symmetry_multiplicity
 _atom_site_fract_x
 _atom_site_fract_y
 _atom_site_fract_z
 _atom_site_fract_occupancy
 Au  Au1  1  0.25000  0.00000  -0.00000  1
 Au  Au2  1  0.75000  0.00000  -0.00000  1
 Pb  Pb1  1  0.15947  0.50000  0.18107  1
 Pb  Pb2  1  0.34053  0.81893  0.50000  1
 Pb  Pb3  1  0.65947  0.18107  0.50000  1
 Pb  Pb4  1  0.84053  0.50000  0.81893  1
