CIF file written using JARVIS-Tools package.
data_RbLi7Ni2O6
_symmetry_space_group_name_H-M  'Cm'
_cell_length_a       3.64661
_cell_length_b       5.3005
_cell_length_c       9.87073
_cell_angle_alpha    92.7838
_cell_angle_beta     90.0001
_cell_angle_gamma    110.121

_symmetry_Int_Tables_number  8
_chemical_formula_structural  RbLi7Ni2O6
_chemical_formula_sum  RbLi7Ni2O6
_cell_volume  178.9066880441339
_cell_formula_units_Z  1
loop_
  _symmetry_equiv_pos_site_id
 _symmetry_equiv_pos_as_xyz
 1  'x, y, z'
loop_
 _atom_site_type_symbol
 _atom_site_label
 _atom_site_symmetry_multiplicity
 _atom_site_fract_x
 _atom_site_fract_y
 _atom_site_fract_z
 _atom_site_fract_occupancy
 Li  Li1  1  0.18002  0.36066  0.25983  1
 Li  Li2  1  0.74483  0.49024  0.09600  1
 Li  Li3  1  0.22340  0.44741  0.58065  1
 Li  Li4  1  0.74277  0.48614  0.41072  1
 Li  Li5  1  0.27701  0.55456  0.89575  1
 Li  Li6  1  0.82523  0.65095  0.72472  1
 Li  Li7  1  0.46880  0.93779  0.53467  1
 Ni  Ni1  1  0.57628  0.15305  0.75533  1
 Ni  Ni2  1  0.43296  0.86651  0.26307  1
 O  O1  1  0.61395  0.22854  0.24085  1
 O  O2  1  0.65766  0.31591  0.58657  1
 O  O3  1  0.70953  0.41961  0.89102  1
 O  O4  1  0.31645  0.63350  0.10848  1
 O  O5  1  0.32169  0.64398  0.40953  1
 O  O6  1  0.39123  0.78295  0.72309  1
 Rb  Rb1  1  0.01080  0.02222  0.00765  1
