CIF file written using JARVIS-Tools package.
data_TiCl3
_symmetry_space_group_name_H-M  'R-3'
_cell_length_a       6.78626
_cell_length_b       6.78626
_cell_length_c       6.78626
_cell_angle_alpha    52.503
_cell_angle_beta     52.503
_cell_angle_gamma    52.503

_symmetry_Int_Tables_number  148
_chemical_formula_structural  TiCl3
_chemical_formula_sum  Ti2Cl6
_cell_volume  182.09832894010836
_cell_formula_units_Z  2
loop_
  _symmetry_equiv_pos_site_id
 _symmetry_equiv_pos_as_xyz
 1  'x, y, z'
loop_
 _atom_site_type_symbol
 _atom_site_label
 _atom_site_symmetry_multiplicity
 _atom_site_fract_x
 _atom_site_fract_y
 _atom_site_fract_z
 _atom_site_fract_occupancy
 Cl  Cl1  1  0.57778  0.92018  0.26172  1
 Cl  Cl2  1  0.92018  0.26172  0.57778  1
 Cl  Cl3  1  0.73828  0.42222  0.07982  1
 Cl  Cl4  1  0.07982  0.73828  0.42222  1
 Cl  Cl5  1  0.42222  0.07982  0.73828  1
 Cl  Cl6  1  0.26172  0.57778  0.92018  1
 Ti  Ti1  1  0.66661  0.66661  0.66661  1
 Ti  Ti2  1  0.33339  0.33339  0.33339  1
