CIF file written using JARVIS-Tools package.
data_Li2CoGeO4
_symmetry_space_group_name_H-M  'Pmn2_1'
_cell_length_a       5.04725
_cell_length_b       5.48578
_cell_length_c       6.30157
_cell_angle_alpha    90
_cell_angle_beta     90
_cell_angle_gamma    90

_symmetry_Int_Tables_number  31
_chemical_formula_structural  Li2CoGeO4
_chemical_formula_sum  Li4Co2Ge2O8
_cell_volume  174.47838391565926
_cell_formula_units_Z  2
loop_
  _symmetry_equiv_pos_site_id
 _symmetry_equiv_pos_as_xyz
 1  'x, y, z'
loop_
 _atom_site_type_symbol
 _atom_site_label
 _atom_site_symmetry_multiplicity
 _atom_site_fract_x
 _atom_site_fract_y
 _atom_site_fract_z
 _atom_site_fract_occupancy
 Co  Co1  1  0.00387  0.17004  0.00000  1
 Co  Co2  1  0.50387  0.82996  0.50000  1
 Ge  Ge1  1  0.49962  0.82921  0.00000  1
 Ge  Ge2  1  -0.00038  0.17079  0.50000  1
 Li  Li1  1  0.00497  0.66679  0.25099  1
 Li  Li2  1  0.50497  0.33321  0.24901  1
 Li  Li3  1  0.00497  0.66679  0.74901  1
 Li  Li4  1  0.50497  0.33321  0.75099  1
 O  O1  1  0.14421  0.83178  0.00000  1
 O  O2  1  0.61095  0.13975  0.00000  1
 O  O3  1  0.11571  0.32730  0.26819  1
 O  O4  1  0.61571  0.67270  0.23181  1
 O  O5  1  0.11095  0.86025  0.50000  1
 O  O6  1  0.64421  0.16822  0.50000  1
 O  O7  1  0.61571  0.67270  0.76819  1
 O  O8  1  0.11571  0.32730  0.73181  1
