CIF file written using JARVIS-Tools package.
data_Li2MnF6
_symmetry_space_group_name_H-M  'P-31m'
_cell_length_a       4.83288
_cell_length_b       4.83288
_cell_length_c       4.36126
_cell_angle_alpha    90
_cell_angle_beta     90
_cell_angle_gamma    120

_symmetry_Int_Tables_number  162
_chemical_formula_structural  Li2MnF6
_chemical_formula_sum  Li2MnF6
_cell_volume  88.21741079245548
_cell_formula_units_Z  1
loop_
  _symmetry_equiv_pos_site_id
 _symmetry_equiv_pos_as_xyz
 1  'x, y, z'
loop_
 _atom_site_type_symbol
 _atom_site_label
 _atom_site_symmetry_multiplicity
 _atom_site_fract_x
 _atom_site_fract_y
 _atom_site_fract_z
 _atom_site_fract_occupancy
 F  F1  1  -0.00000  0.68919  0.24150  1
 F  F2  1  0.00000  0.31081  0.75850  1
 F  F3  1  0.31081  0.31081  0.24150  1
 F  F4  1  0.31081  0.00000  0.75850  1
 F  F5  1  0.68919  0.68919  0.75850  1
 F  F6  1  0.68919  -0.00000  0.24150  1
 Li  Li1  1  0.33333  0.66667  0.50000  1
 Li  Li2  1  0.66667  0.33333  0.50000  1
 Mn  Mn1  1  0.00000  0.00000  0.00000  1
