CIF file written using JARVIS-Tools package.
data_Ba2BiSbO6
_symmetry_space_group_name_H-M  'R-3'
_cell_length_a       6.0807
_cell_length_b       6.0807
_cell_length_c       6.0807
_cell_angle_alpha    60.6267
_cell_angle_beta     60.6266
_cell_angle_gamma    60.6267

_symmetry_Int_Tables_number  148
_chemical_formula_structural  Ba2BiSbO6
_chemical_formula_sum  Ba2BiSbO6
_cell_volume  161.2308849733773
_cell_formula_units_Z  1
loop_
  _symmetry_equiv_pos_site_id
 _symmetry_equiv_pos_as_xyz
 1  'x, y, z'
loop_
 _atom_site_type_symbol
 _atom_site_label
 _atom_site_symmetry_multiplicity
 _atom_site_fract_x
 _atom_site_fract_y
 _atom_site_fract_z
 _atom_site_fract_occupancy
 Ba  Ba1  1  0.74894  0.74894  0.74894  1
 Ba  Ba2  1  0.25106  0.25106  0.25106  1
 Bi  Bi1  1  0.00000  0.00000  0.00000  1
 O  O1  1  0.27165  0.78073  0.68311  1
 O  O2  1  0.78073  0.68311  0.27165  1
 O  O3  1  0.68311  0.27165  0.78073  1
 O  O4  1  0.72835  0.21927  0.31689  1
 O  O5  1  0.31689  0.72835  0.21927  1
 O  O6  1  0.21927  0.31689  0.72835  1
 Sb  Sb1  1  0.50000  0.50000  0.50000  1
