CIF file written using JARVIS-Tools package.
data_Li3CrClO4
_symmetry_space_group_name_H-M  'P4/nmm'
_cell_length_a       6.73267
_cell_length_b       6.73267
_cell_length_c       4.79068
_cell_angle_alpha    90
_cell_angle_beta     90
_cell_angle_gamma    90

_symmetry_Int_Tables_number  129
_chemical_formula_structural  Li3CrClO4
_chemical_formula_sum  Li6Cr2Cl2O8
_cell_volume  217.1559217432939
_cell_formula_units_Z  2
loop_
  _symmetry_equiv_pos_site_id
 _symmetry_equiv_pos_as_xyz
 1  'x, y, z'
loop_
 _atom_site_type_symbol
 _atom_site_label
 _atom_site_symmetry_multiplicity
 _atom_site_fract_x
 _atom_site_fract_y
 _atom_site_fract_z
 _atom_site_fract_occupancy
 Cl  Cl1  1  0.00000  0.50000  0.32164  1
 Cl  Cl2  1  0.50000  0.00000  0.67836  1
 Cr  Cr1  1  0.50000  0.50000  0.00000  1
 Cr  Cr2  1  0.00000  0.00000  0.00000  1
 Li  Li1  1  0.75000  0.75000  0.50000  1
 Li  Li2  1  0.50000  0.00000  0.15674  1
 Li  Li3  1  0.00000  0.50000  0.84326  1
 Li  Li4  1  0.25000  0.25000  0.50000  1
 Li  Li5  1  0.75000  0.25000  0.50000  1
 Li  Li6  1  0.25000  0.75000  0.50000  1
 O  O1  1  0.50000  0.69656  0.21070  1
 O  O2  1  0.19656  0.00000  0.21070  1
 O  O3  1  0.80344  0.00000  0.21070  1
 O  O4  1  0.00000  0.19656  0.78930  1
 O  O5  1  0.50000  0.30344  0.21070  1
 O  O6  1  0.30344  0.50000  0.78930  1
 O  O7  1  0.69656  0.50000  0.78930  1
 O  O8  1  0.00000  0.80344  0.78930  1
