CIF file written using JARVIS-Tools package.
data_LiVF4
_symmetry_space_group_name_H-M  'P2_1/c'
_cell_length_a       7.25113
_cell_length_b       4.97156
_cell_length_c       7.46163
_cell_angle_alpha    90
_cell_angle_beta     101.873
_cell_angle_gamma    90

_symmetry_Int_Tables_number  14
_chemical_formula_structural  LiVF4
_chemical_formula_sum  Li4V4F6
_cell_volume  263.23268277256227
_cell_formula_units_Z  4
loop_
  _symmetry_equiv_pos_site_id
 _symmetry_equiv_pos_as_xyz
 1  'x, y, z'
loop_
 _atom_site_type_symbol
 _atom_site_label
 _atom_site_symmetry_multiplicity
 _atom_site_fract_x
 _atom_site_fract_y
 _atom_site_fract_z
 _atom_site_fract_occupancy
 F  F1  1  0.41764  0.92661  0.30516  1
 F  F2  1  0.30530  0.06699  0.94613  1
 F  F3  1  0.80530  0.43301  0.94613  1
 F  F4  1  0.43384  0.58810  0.81183  1
 F  F5  1  0.19470  0.56699  0.05387  1
 F  F6  1  0.93384  0.91190  0.81183  1
 F  F7  1  0.58236  0.07339  0.69484  1
 F  F8  1  0.08236  0.42661  0.69484  1
 F  F9  1  0.69363  0.57927  0.59074  1
 F  F10  1  0.30637  0.42073  0.40926  1
 F  F11  1  0.80637  0.07927  0.40926  1
 F  F12  1  0.69470  0.93301  0.05387  1
 F  F13  1  0.06616  0.08810  0.18817  1
 F  F14  1  0.91764  0.57339  0.30516  1
 F  F15  1  0.56616  0.41190  0.18817  1
 F  F16  1  0.19363  0.92073  0.59074  1
 Li  Li1  1  0.66202  0.74912  0.35858  1
 Li  Li2  1  0.16202  0.75088  0.35858  1
 Li  Li3  1  0.83798  0.24912  0.64142  1
 Li  Li4  1  0.33798  0.25088  0.64142  1
 V  V1  1  0.81701  0.25423  0.18334  1
 V  V2  1  0.31701  0.24577  0.18334  1
 V  V3  1  0.68299  0.75423  0.81666  1
 V  V4  1  0.18299  0.74577  0.81666  1
