CIF file written using JARVIS-Tools package.
data_CaCrO2
_symmetry_space_group_name_H-M  'P2_1/m'
_cell_length_a       3.06897
_cell_length_b       8.15217
_cell_length_c       8.49311
_cell_angle_alpha    95.6843
_cell_angle_beta     90.0022
_cell_angle_gamma    90.0021

_symmetry_Int_Tables_number  11
_chemical_formula_structural  CaCrO2
_chemical_formula_sum  Ca4Cr4O8
_cell_volume  211.44219669236023
_cell_formula_units_Z  4
loop_
  _symmetry_equiv_pos_site_id
 _symmetry_equiv_pos_as_xyz
 1  'x, y, z'
loop_
 _atom_site_type_symbol
 _atom_site_label
 _atom_site_symmetry_multiplicity
 _atom_site_fract_x
 _atom_site_fract_y
 _atom_site_fract_z
 _atom_site_fract_occupancy
 Ca  Ca1  1  0.75198  0.93149  0.33495  1
 Ca  Ca2  1  0.25198  0.08859  0.69325  1
 Ca  Ca3  1  0.75199  0.19600  0.05523  1
 Ca  Ca4  1  0.25197  0.82409  0.97297  1
 Cr  Cr1  1  0.75201  0.72832  0.62293  1
 Cr  Cr2  1  0.25195  0.56219  0.21308  1
 Cr  Cr3  1  0.75202  0.45790  0.81513  1
 Cr  Cr4  1  0.25196  0.29174  0.40526  1
 O  O1  1  0.75197  0.18668  0.51128  1
 O  O2  1  0.25202  0.61583  0.75047  1
 O  O3  1  0.75194  0.40426  0.27774  1
 O  O4  1  0.25200  0.83339  0.51691  1
 O  O5  1  0.75198  0.97339  0.84822  1
 O  O6  1  0.75195  0.69576  0.14095  1
 O  O7  1  0.25198  0.04670  0.17998  1
 O  O8  1  0.25202  0.32432  0.88726  1
