CIF file written using JARVIS-Tools package.
data_PHF2
_symmetry_space_group_name_H-M  'P2_12_12_1'
_cell_length_a       4.40369
_cell_length_b       6.25555
_cell_length_c       7.66968
_cell_angle_alpha    90
_cell_angle_beta     90
_cell_angle_gamma    90

_symmetry_Int_Tables_number  19
_chemical_formula_structural  PHF2
_chemical_formula_sum  P4H4F8
_cell_volume  211.2805742386304
_cell_formula_units_Z  4
loop_
  _symmetry_equiv_pos_site_id
 _symmetry_equiv_pos_as_xyz
 1  'x, y, z'
loop_
 _atom_site_type_symbol
 _atom_site_label
 _atom_site_symmetry_multiplicity
 _atom_site_fract_x
 _atom_site_fract_y
 _atom_site_fract_z
 _atom_site_fract_occupancy
 F  F1  1  0.96475  0.62512  0.24189  1
 F  F2  1  0.46475  0.87488  0.75811  1
 F  F3  1  0.03525  0.12512  0.25811  1
 F  F4  1  0.53525  0.37488  0.74189  1
 F  F5  1  0.54574  0.41455  0.35103  1
 F  F6  1  0.04574  0.08545  0.64897  1
 F  F7  1  0.45426  0.91455  0.14897  1
 F  F8  1  0.95426  0.58545  0.85103  1
 H  H1  1  0.50784  0.55479  0.00047  1
 H  H2  1  0.00784  0.94521  -0.00047  1
 H  H3  1  0.49216  0.05479  0.49953  1
 H  H4  1  0.99216  0.44521  0.50047  1
 P  P1  1  0.71692  0.40679  0.92446  1
 P  P2  1  0.21692  0.09321  0.07554  1
 P  P3  1  0.28308  0.90679  0.57554  1
 P  P4  1  0.78308  0.59321  0.42446  1
