CIF file written using JARVIS-Tools package.
data_Na3ErCl6
_symmetry_space_group_name_H-M  'P2_1/c'
_cell_length_a       6.7297
_cell_length_b       7.24002
_cell_length_c       11.9948
_cell_angle_alpha    90
_cell_angle_beta     123.082
_cell_angle_gamma    90

_symmetry_Int_Tables_number  14
_chemical_formula_structural  Na3ErCl6
_chemical_formula_sum  Na6Er2Cl2
_cell_volume  489.6830723477519
_cell_formula_units_Z  2
loop_
  _symmetry_equiv_pos_site_id
 _symmetry_equiv_pos_as_xyz
 1  'x, y, z'
loop_
 _atom_site_type_symbol
 _atom_site_label
 _atom_site_symmetry_multiplicity
 _atom_site_fract_x
 _atom_site_fract_y
 _atom_site_fract_z
 _atom_site_fract_occupancy
 Cl  Cl1  1  0.75460  0.30649  0.92172  1
 Cl  Cl2  1  0.09495  0.06106  0.24043  1
 Cl  Cl3  1  0.24540  0.69351  0.07828  1
 Cl  Cl4  1  0.90505  0.93894  0.75957  1
 Cl  Cl5  1  0.09495  0.43894  0.74043  1
 Cl  Cl6  1  0.90505  0.56106  0.25957  1
 Cl  Cl7  1  0.61480  0.67913  0.43189  1
 Cl  Cl8  1  0.61480  0.82087  0.93189  1
 Cl  Cl9  1  0.38520  0.32087  0.56811  1
 Cl  Cl10  1  0.75460  0.19351  0.42172  1
 Cl  Cl11  1  0.24540  0.80649  0.57828  1
 Cl  Cl12  1  0.38520  0.17913  0.06811  1
 Er  Er1  1  -0.00000  0.50000  0.50000  1
 Er  Er2  1  0.00000  0.00000  0.00000  1
 Na  Na1  1  0.71043  0.58673  0.74314  1
 Na  Na2  1  0.28957  0.08673  0.75686  1
 Na  Na3  1  0.28957  0.41327  0.25686  1
 Na  Na4  1  0.71043  0.91327  0.24314  1
 Na  Na5  1  0.50000  0.50000  0.00000  1
 Na  Na6  1  0.50000  0.00000  0.50000  1
