CIF file written using JARVIS-Tools package.
data_Li2VOF3
_symmetry_space_group_name_H-M  'P4_1'
_cell_length_a       5.89173
_cell_length_b       5.89173
_cell_length_c       8.40765
_cell_angle_alpha    90
_cell_angle_beta     90
_cell_angle_gamma    90

_symmetry_Int_Tables_number  76
_chemical_formula_structural  Li2VOF3
_chemical_formula_sum  Li8V4O4F2
_cell_volume  291.85073118364903
_cell_formula_units_Z  4
loop_
  _symmetry_equiv_pos_site_id
 _symmetry_equiv_pos_as_xyz
 1  'x, y, z'
loop_
 _atom_site_type_symbol
 _atom_site_label
 _atom_site_symmetry_multiplicity
 _atom_site_fract_x
 _atom_site_fract_y
 _atom_site_fract_z
 _atom_site_fract_occupancy
 F  F1  1  0.98693  0.74360  0.25932  1
 F  F2  1  0.75304  0.47907  0.00147  1
 F  F3  1  0.75167  0.51043  0.49580  1
 F  F4  1  0.52093  0.75304  0.25147  1
 F  F5  1  0.51043  0.24833  0.24580  1
 F  F6  1  0.48957  0.75167  0.74580  1
 F  F7  1  0.47907  0.24696  0.75147  1
 F  F8  1  0.24696  0.52093  0.50147  1
 F  F9  1  0.24833  0.48957  0.99580  1
 F  F10  1  0.25640  0.98693  0.50932  1
 F  F11  1  0.01307  0.25640  0.75932  1
 F  F12  1  0.74360  0.01307  0.00932  1
 Li  Li1  1  0.24324  0.25794  0.37163  1
 Li  Li2  1  0.75676  0.74206  0.87163  1
 Li  Li3  1  0.74206  0.24324  0.62163  1
 Li  Li4  1  0.73571  0.49534  0.24878  1
 Li  Li5  1  0.50466  0.73571  0.49878  1
 Li  Li6  1  0.49534  0.26429  -0.00122  1
 Li  Li7  1  0.26429  0.50466  0.74878  1
 Li  Li8  1  0.25794  0.75676  0.12163  1
 O  O1  1  0.23362  0.02094  0.98426  1
 O  O2  1  0.02094  0.76638  0.73426  1
 O  O3  1  0.97906  0.23362  0.23426  1
 O  O4  1  0.76638  0.97906  0.48426  1
 V  V1  1  0.75449  0.01020  0.26374  1
 V  V2  1  0.24551  0.98980  0.76374  1
 V  V3  1  0.98980  0.75449  0.51374  1
 V  V4  1  0.01020  0.24551  0.01374  1
