CIF file written using JARVIS-Tools package.
data_ErGe3
_symmetry_space_group_name_H-M  'Cmcm'
_cell_length_a       3.92218
_cell_length_b       4.02931
_cell_length_c       10.5753
_cell_angle_alpha    100.982
_cell_angle_beta     90
_cell_angle_gamma    90

_symmetry_Int_Tables_number  63
_chemical_formula_structural  ErGe3
_chemical_formula_sum  Er2Ge6
_cell_volume  164.06789081418194
_cell_formula_units_Z  2
loop_
  _symmetry_equiv_pos_site_id
 _symmetry_equiv_pos_as_xyz
 1  'x, y, z'
loop_
 _atom_site_type_symbol
 _atom_site_label
 _atom_site_symmetry_multiplicity
 _atom_site_fract_x
 _atom_site_fract_y
 _atom_site_fract_z
 _atom_site_fract_occupancy
 Er  Er1  1  0.25000  0.58201  0.16403  1
 Er  Er2  1  0.75000  0.41799  0.83597  1
 Ge  Ge1  1  0.25000  0.18846  0.37693  1
 Ge  Ge2  1  0.75000  0.81154  0.62307  1
 Ge  Ge3  1  0.75000  0.04041  0.08081  1
 Ge  Ge4  1  0.25000  0.95959  0.91919  1
 Ge  Ge5  1  0.75000  0.69044  0.38087  1
 Ge  Ge6  1  0.25000  0.30956  0.61913  1
