CIF file written using JARVIS-Tools package.
data_Ba3SrTa2O9
_symmetry_space_group_name_H-M  'P-3m1'
_cell_length_a       6.01213
_cell_length_b       6.01213
_cell_length_c       7.56597
_cell_angle_alpha    90
_cell_angle_beta     90
_cell_angle_gamma    120

_symmetry_Int_Tables_number  164
_chemical_formula_structural  Ba3SrTa2O9
_chemical_formula_sum  Ba3SrTa2O9
_cell_volume  236.83886335976456
_cell_formula_units_Z  1
loop_
  _symmetry_equiv_pos_site_id
 _symmetry_equiv_pos_as_xyz
 1  'x, y, z'
loop_
 _atom_site_type_symbol
 _atom_site_label
 _atom_site_symmetry_multiplicity
 _atom_site_fract_x
 _atom_site_fract_y
 _atom_site_fract_z
 _atom_site_fract_occupancy
 Ba  Ba1  1  0.33333  0.66667  0.31850  1
 Ba  Ba2  1  0.00000  0.00000  0.00000  1
 Ba  Ba3  1  0.66667  0.33333  0.68150  1
 O  O1  1  0.50000  0.00000  0.00000  1
 O  O2  1  0.00000  0.50000  0.00000  1
 O  O3  1  0.50000  0.50000  0.00000  1
 O  O4  1  0.82134  0.64268  0.30250  1
 O  O5  1  0.82134  0.17866  0.30250  1
 O  O6  1  0.35732  0.17866  0.30250  1
 O  O7  1  0.17866  0.35732  0.69750  1
 O  O8  1  0.17866  0.82134  0.69750  1
 O  O9  1  0.64268  0.82134  0.69750  1
 Sr  Sr1  1  0.00000  0.00000  0.50000  1
 Ta  Ta1  1  0.33333  0.66667  0.83633  1
 Ta  Ta2  1  0.66667  0.33333  0.16367  1
