CIF file written using JARVIS-Tools package.
data_BiSe
_symmetry_space_group_name_H-M  'Fmm2'
_cell_length_a       4.24158
_cell_length_b       4.24159
_cell_length_c       13.0589
_cell_angle_alpha    99.3377
_cell_angle_beta     99.3377
_cell_angle_gamma    89.998

_symmetry_Int_Tables_number  42
_chemical_formula_structural  BiSe
_chemical_formula_sum  Bi2Se2
_cell_volume  228.67485429346996
_cell_formula_units_Z  2
loop_
  _symmetry_equiv_pos_site_id
 _symmetry_equiv_pos_as_xyz
 1  'x, y, z'
loop_
 _atom_site_type_symbol
 _atom_site_label
 _atom_site_symmetry_multiplicity
 _atom_site_fract_x
 _atom_site_fract_y
 _atom_site_fract_z
 _atom_site_fract_occupancy
 Bi  Bi1  1  0.68386  0.68386  0.37077  1
 Bi  Bi2  1  0.31305  0.31305  0.62924  1
 Se  Se1  1  0.79914  0.79914  0.60354  1
 Se  Se2  1  0.19595  0.19595  0.39645  1
