CIF file written using JARVIS-Tools package.
data_Li4Si2NiO7
_symmetry_space_group_name_H-M  'P1'
_cell_length_a       4.43328
_cell_length_b       5.25355
_cell_length_c       6.74421
_cell_angle_alpha    98.5795
_cell_angle_beta     90.969
_cell_angle_gamma    114.567

_symmetry_Int_Tables_number  1
_chemical_formula_structural  Li4Si2NiO7
_chemical_formula_sum  Li4Si2NiO7
_cell_volume  140.71337767708206
_cell_formula_units_Z  1
loop_
  _symmetry_equiv_pos_site_id
 _symmetry_equiv_pos_as_xyz
 1  'x, y, z'
loop_
 _atom_site_type_symbol
 _atom_site_label
 _atom_site_symmetry_multiplicity
 _atom_site_fract_x
 _atom_site_fract_y
 _atom_site_fract_z
 _atom_site_fract_occupancy
 Li  Li1  1  0.13437  0.29807  0.43577  1
 Li  Li2  1  0.70533  0.43097  0.14403  1
 Li  Li3  1  0.28385  0.58310  0.85277  1
 Li  Li4  1  0.83995  0.70553  0.56638  1
 Ni  Ni1  1  0.00979  0.02324  0.00520  1
 O  O1  1  0.76628  0.10689  0.22657  1
 O  O2  1  0.40515  0.26873  0.88742  1
 O  O3  1  0.91558  0.40867  0.65236  1
 O  O4  1  0.50131  0.58941  0.34319  1
 O  O5  1  0.12948  0.73758  0.10475  1
 O  O6  1  0.67007  0.89526  0.77460  1
 O  O7  1  0.31116  0.99937  0.49804  1
 Si  Si1  1  0.58763  0.15214  0.70915  1
 Si  Si2  1  0.43047  0.85005  0.28695  1
