CIF file written using JARVIS-Tools package.
data_Tb3SbO7
_symmetry_space_group_name_H-M  'P-1'
_cell_length_a       6.44062
_cell_length_b       6.48277
_cell_length_c       7.58356
_cell_angle_alpha    106.831
_cell_angle_beta     89.8211
_cell_angle_gamma    98.1895

_symmetry_Int_Tables_number  2
_chemical_formula_structural  Tb3SbO7
_chemical_formula_sum  Tb6Sb2O4
_cell_volume  299.73997876932253
_cell_formula_units_Z  2
loop_
  _symmetry_equiv_pos_site_id
 _symmetry_equiv_pos_as_xyz
 1  'x, y, z'
loop_
 _atom_site_type_symbol
 _atom_site_label
 _atom_site_symmetry_multiplicity
 _atom_site_fract_x
 _atom_site_fract_y
 _atom_site_fract_z
 _atom_site_fract_occupancy
 O  O1  1  0.10090  0.07345  0.26907  1
 O  O2  1  0.71104  0.06524  0.48435  1
 O  O3  1  0.92496  0.67872  0.95552  1
 O  O4  1  0.07504  0.32128  0.04448  1
 O  O5  1  0.92886  0.66809  0.38688  1
 O  O6  1  0.89910  0.92655  0.73093  1
 O  O7  1  0.70870  0.06703  0.04687  1
 O  O8  1  0.54760  0.36202  0.34430  1
 O  O9  1  0.45240  0.63798  0.65570  1
 O  O10  1  0.44166  0.64636  0.16635  1
 O  O11  1  0.28896  0.93476  0.51565  1
 O  O12  1  0.07114  0.33191  0.61312  1
 O  O13  1  0.29130  0.93297  0.95313  1
 O  O14  1  0.55834  0.35364  0.83365  1
 Sb  Sb1  1  0.00000  -0.00000  0.50000  1
 Sb  Sb2  1  0.00000  0.00000  0.00000  1
 Tb  Tb1  1  0.26526  0.53600  0.88301  1
 Tb  Tb2  1  0.26059  0.52413  0.38513  1
 Tb  Tb3  1  0.45936  0.00476  0.25211  1
 Tb  Tb4  1  0.54064  0.99524  0.74789  1
 Tb  Tb5  1  0.73941  0.47587  0.61487  1
 Tb  Tb6  1  0.73474  0.46400  0.11699  1
