CIF file written using JARVIS-Tools package.
data_ScVO3
_symmetry_space_group_name_H-M  'Pnma'
_cell_length_a       5.04825
_cell_length_b       5.43416
_cell_length_c       7.50611
_cell_angle_alpha    90
_cell_angle_beta     90
_cell_angle_gamma    90

_symmetry_Int_Tables_number  62
_chemical_formula_structural  ScVO3
_chemical_formula_sum  Sc4V4O2
_cell_volume  205.915042396629
_cell_formula_units_Z  4
loop_
  _symmetry_equiv_pos_site_id
 _symmetry_equiv_pos_as_xyz
 1  'x, y, z'
loop_
 _atom_site_type_symbol
 _atom_site_label
 _atom_site_symmetry_multiplicity
 _atom_site_fract_x
 _atom_site_fract_y
 _atom_site_fract_z
 _atom_site_fract_occupancy
 O  O1  1  0.31705  0.69024  0.92927  1
 O  O2  1  0.64221  0.06352  0.75000  1
 O  O3  1  0.81705  0.80976  0.42927  1
 O  O4  1  0.18295  0.19024  0.92927  1
 O  O5  1  0.68295  0.30976  0.07073  1
 O  O6  1  0.18295  0.19024  0.57073  1
 O  O7  1  0.14221  0.43648  0.25000  1
 O  O8  1  0.85779  0.56352  0.75000  1
 O  O9  1  0.31705  0.69024  0.57073  1
 O  O10  1  0.35779  0.93648  0.25000  1
 O  O11  1  0.81705  0.80976  0.07073  1
 O  O12  1  0.68295  0.30976  0.42927  1
 Sc  Sc1  1  0.02475  0.92761  0.75000  1
 Sc  Sc2  1  0.52475  0.57239  0.25000  1
 Sc  Sc3  1  0.47525  0.42761  0.75000  1
 Sc  Sc4  1  0.97525  0.07239  0.25000  1
 V  V1  1  0.00000  0.50000  0.50000  1
 V  V2  1  0.00000  0.50000  0.00000  1
 V  V3  1  0.50000  0.00000  0.50000  1
 V  V4  1  0.50000  0.00000  0.00000  1
