CIF file written using JARVIS-Tools package.
data_DyB4Ru
_symmetry_space_group_name_H-M  'Pbam'
_cell_length_a       3.57693
_cell_length_b       5.95035
_cell_length_c       11.5097
_cell_angle_alpha    90
_cell_angle_beta     90
_cell_angle_gamma    90

_symmetry_Int_Tables_number  55
_chemical_formula_structural  DyB4Ru
_chemical_formula_sum  Dy4B6Ru4
_cell_volume  244.9713453440797
_cell_formula_units_Z  4
loop_
  _symmetry_equiv_pos_site_id
 _symmetry_equiv_pos_as_xyz
 1  'x, y, z'
loop_
 _atom_site_type_symbol
 _atom_site_label
 _atom_site_symmetry_multiplicity
 _atom_site_fract_x
 _atom_site_fract_y
 _atom_site_fract_z
 _atom_site_fract_occupancy
 B  B1  1  0.50000  0.36382  0.46985  1
 B  B2  1  0.50000  0.47509  0.19158  1
 B  B3  1  0.50000  0.52491  0.80842  1
 B  B4  1  0.50000  0.97509  0.30842  1
 B  B5  1  0.50000  0.11199  0.54658  1
 B  B6  1  0.50000  0.88801  0.45342  1
 B  B7  1  0.50000  0.61199  0.95342  1
 B  B8  1  0.50000  0.38801  0.04658  1
 B  B9  1  0.50000  0.13618  0.96985  1
 B  B10  1  0.50000  0.86382  0.03015  1
 B  B11  1  0.50000  0.63618  0.53015  1
 B  B12  1  0.50000  0.02491  0.69158  1
 B  B13  1  0.50000  0.21120  0.81445  1
 B  B14  1  0.50000  0.78880  0.18555  1
 B  B15  1  0.50000  0.71120  0.68555  1
 B  B16  1  0.50000  0.28880  0.31445  1
 Dy  Dy1  1  0.00000  0.12830  0.14996  1
 Dy  Dy2  1  0.00000  0.37170  0.64996  1
 Dy  Dy3  1  0.00000  0.62830  0.35004  1
 Dy  Dy4  1  0.00000  0.87170  0.85004  1
 Ru  Ru1  1  0.00000  0.14036  0.40712  1
 Ru  Ru2  1  0.00000  0.85964  0.59288  1
 Ru  Ru3  1  0.00000  0.64036  0.09288  1
 Ru  Ru4  1  0.00000  0.35964  0.90712  1
