CIF file written using JARVIS-Tools package.
data_Li2MnFeP2O8
_symmetry_space_group_name_H-M  'P2_1/m'
_cell_length_a       4.70461
_cell_length_b       5.95362
_cell_length_c       10.1699
_cell_angle_alpha    90
_cell_angle_beta     90.128
_cell_angle_gamma    90

_symmetry_Int_Tables_number  11
_chemical_formula_structural  Li2MnFeP2O8
_chemical_formula_sum  Li4Mn2Fe2P4O6
_cell_volume  284.8526165080174
_cell_formula_units_Z  2
loop_
  _symmetry_equiv_pos_site_id
 _symmetry_equiv_pos_as_xyz
 1  'x, y, z'
loop_
 _atom_site_type_symbol
 _atom_site_label
 _atom_site_symmetry_multiplicity
 _atom_site_fract_x
 _atom_site_fract_y
 _atom_site_fract_z
 _atom_site_fract_occupancy
 Fe  Fe1  1  0.98361  0.25000  0.72307  1
 Fe  Fe2  1  0.01639  0.75000  0.27693  1
 Li  Li1  1  0.00000  0.00000  0.00000  1
 Li  Li2  1  0.50000  0.50000  0.50000  1
 Li  Li3  1  0.50000  0.00000  0.50000  1
 Li  Li4  1  0.00000  0.50000  0.00000  1
 Mn  Mn1  1  0.51637  0.25000  0.22610  1
 Mn  Mn2  1  0.48363  0.75000  0.77390  1
 O  O1  1  0.78573  0.95793  0.65733  1
 O  O2  1  0.73290  0.95574  0.17111  1
 O  O3  1  0.73816  0.25000  0.89507  1
 O  O4  1  0.79125  0.75000  0.44390  1
 O  O5  1  0.78573  0.54207  0.65733  1
 O  O6  1  0.21427  0.04207  0.34267  1
 O  O7  1  0.70460  0.75000  0.95822  1
 O  O8  1  0.75340  0.25000  0.41216  1
 O  O9  1  0.29540  0.25000  0.04178  1
 O  O10  1  0.24660  0.75000  0.58784  1
 O  O11  1  0.26710  0.04426  0.82889  1
 O  O12  1  0.26184  0.75000  0.10493  1
 O  O13  1  0.73290  0.54426  0.17111  1
 O  O14  1  0.21427  0.45793  0.34267  1
 O  O15  1  0.26710  0.45574  0.82889  1
 O  O16  1  0.20875  0.25000  0.55610  1
 P  P1  1  0.92204  0.75000  0.58505  1
 P  P2  1  0.58852  0.75000  0.10080  1
 P  P3  1  0.41148  0.25000  0.89920  1
 P  P4  1  0.07796  0.25000  0.41495  1
