CIF file written using JARVIS-Tools package.
data_Ba2TaBiO6
_symmetry_space_group_name_H-M  'R-3'
_cell_length_a       6.07591
_cell_length_b       6.07591
_cell_length_c       6.07591
_cell_angle_alpha    60.7349
_cell_angle_beta     60.7349
_cell_angle_gamma    60.7348

_symmetry_Int_Tables_number  148
_chemical_formula_structural  Ba2TaBiO6
_chemical_formula_sum  Ba2TaBiO6
_cell_volume  161.23591852566244
_cell_formula_units_Z  1
loop_
  _symmetry_equiv_pos_site_id
 _symmetry_equiv_pos_as_xyz
 1  'x, y, z'
loop_
 _atom_site_type_symbol
 _atom_site_label
 _atom_site_symmetry_multiplicity
 _atom_site_fract_x
 _atom_site_fract_y
 _atom_site_fract_z
 _atom_site_fract_occupancy
 Ba  Ba1  1  0.25120  0.25120  0.25120  1
 Ba  Ba2  1  0.74880  0.74880  0.74880  1
 Bi  Bi1  1  0.00000  0.00000  0.00000  1
 O  O1  1  0.27472  0.78359  0.67558  1
 O  O2  1  0.78359  0.67558  0.27472  1
 O  O3  1  0.67558  0.27472  0.78359  1
 O  O4  1  0.72528  0.21641  0.32442  1
 O  O5  1  0.32442  0.72528  0.21641  1
 O  O6  1  0.21641  0.32442  0.72528  1
 Ta  Ta1  1  0.50000  0.50000  0.50000  1
