CIF file written using JARVIS-Tools package.
data_LiAgO2
_symmetry_space_group_name_H-M  'P2_1/c'
_cell_length_a       4.70887
_cell_length_b       3.67446
_cell_length_c       5.33903
_cell_angle_alpha    90
_cell_angle_beta     99.2469
_cell_angle_gamma    90

_symmetry_Int_Tables_number  14
_chemical_formula_structural  LiAgO2
_chemical_formula_sum  Li2Ag2O4
_cell_volume  91.17838730067845
_cell_formula_units_Z  2
loop_
  _symmetry_equiv_pos_site_id
 _symmetry_equiv_pos_as_xyz
 1  'x, y, z'
loop_
 _atom_site_type_symbol
 _atom_site_label
 _atom_site_symmetry_multiplicity
 _atom_site_fract_x
 _atom_site_fract_y
 _atom_site_fract_z
 _atom_site_fract_occupancy
 Ag  Ag1  1  0.00000  0.00000  0.00000  1
 Ag  Ag2  1  0.00000  0.50000  0.50000  1
 Li  Li1  1  0.50000  0.00000  0.50000  1
 Li  Li2  1  0.50000  0.50000  -0.00000  1
 O  O1  1  0.24929  0.31935  0.25299  1
 O  O2  1  0.75071  0.68065  0.74701  1
 O  O3  1  0.24929  0.18065  0.75299  1
 O  O4  1  0.75071  0.81935  0.24701  1
