CIF file written using JARVIS-Tools package.
data_NiH2SeO5
_symmetry_space_group_name_H-M  'C2/c'
_cell_length_a       5.30934
_cell_length_b       5.30933
_cell_length_c       7.55513
_cell_angle_alpha    107.732
_cell_angle_beta     107.732
_cell_angle_gamma    98.4324

_symmetry_Int_Tables_number  15
_chemical_formula_structural  NiH2SeO5
_chemical_formula_sum  Ni2H4Se2O0
_cell_volume  186.36796789165723
_cell_formula_units_Z  2
loop_
  _symmetry_equiv_pos_site_id
 _symmetry_equiv_pos_as_xyz
 1  'x, y, z'
loop_
 _atom_site_type_symbol
 _atom_site_label
 _atom_site_symmetry_multiplicity
 _atom_site_fract_x
 _atom_site_fract_y
 _atom_site_fract_z
 _atom_site_fract_occupancy
 H  H1  1  0.63213  0.03120  0.19937  1
 H  H2  1  0.46880  0.86787  0.30063  1
 H  H3  1  0.36787  0.96880  0.80063  1
 H  H4  1  0.53120  0.13213  0.69937  1
 Ni  Ni1  1  -0.00000  0.00000  0.50000  1
 Ni  Ni2  1  0.50000  0.50000  0.00000  1
 O  O1  1  0.80453  0.70635  0.56799  1
 O  O2  1  0.79365  0.69547  0.93201  1
 O  O3  1  0.62442  0.87558  0.25000  1
 O  O4  1  0.37558  0.12442  0.75000  1
 O  O5  1  0.19053  0.76046  0.34793  1
 O  O6  1  0.19547  0.29365  0.43201  1
 O  O7  1  0.80947  0.23954  0.65207  1
 O  O8  1  0.20635  0.30453  0.06799  1
 O  O9  1  0.73954  0.30947  0.15207  1
 O  O10  1  0.26046  0.69053  0.84793  1
 Se  Se1  1  0.08616  0.41384  0.25000  1
 Se  Se2  1  0.91384  0.58616  0.75000  1
