CIF file written using JARVIS-Tools package.
data_MnO2
_symmetry_space_group_name_H-M  'I4/m'
_cell_length_a       2.87247
_cell_length_b       7.06635
_cell_length_c       7.06655
_cell_angle_alpha    87.6342
_cell_angle_beta     78.2712
_cell_angle_gamma    78.2738

_symmetry_Int_Tables_number  87
_chemical_formula_structural  MnO2
_chemical_formula_sum  Mn4O8
_cell_volume  137.5103598463937
_cell_formula_units_Z  4
loop_
  _symmetry_equiv_pos_site_id
 _symmetry_equiv_pos_as_xyz
 1  'x, y, z'
loop_
 _atom_site_type_symbol
 _atom_site_label
 _atom_site_symmetry_multiplicity
 _atom_site_fract_x
 _atom_site_fract_y
 _atom_site_fract_z
 _atom_site_fract_occupancy
 Mn  Mn1  1  0.65111  0.18071  0.51709  1
 Mn  Mn2  1  0.16820  0.48291  0.18071  1
 Mn  Mn3  1  0.83180  0.51709  0.81929  1
 Mn  Mn4  1  0.34889  0.81929  0.48291  1
 O  O1  1  0.83607  0.70654  0.62128  1
 O  O2  1  0.45737  0.37871  0.70655  1
 O  O3  1  0.54263  0.62129  0.29345  1
 O  O4  1  0.16393  0.29346  0.37872  1
 O  O5  1  0.15534  0.04737  0.64193  1
 O  O6  1  0.79728  0.35807  0.04737  1
 O  O7  1  0.84466  0.95263  0.35807  1
 O  O8  1  0.20272  0.64193  0.95263  1
