CIF file written using JARVIS-Tools package.
data_K2VPCO7
_symmetry_space_group_name_H-M  'P2_1/m'
_cell_length_a       5.54906
_cell_length_b       6.67053
_cell_length_c       9.66218
_cell_angle_alpha    90
_cell_angle_beta     89.8711
_cell_angle_gamma    90

_symmetry_Int_Tables_number  11
_chemical_formula_structural  K2VPCO7
_chemical_formula_sum  K4V2P2C2O4
_cell_volume  357.6462315418552
_cell_formula_units_Z  2
loop_
  _symmetry_equiv_pos_site_id
 _symmetry_equiv_pos_as_xyz
 1  'x, y, z'
loop_
 _atom_site_type_symbol
 _atom_site_label
 _atom_site_symmetry_multiplicity
 _atom_site_fract_x
 _atom_site_fract_y
 _atom_site_fract_z
 _atom_site_fract_occupancy
 C  C1  1  0.72569  0.75000  0.10278  1
 C  C2  1  0.27431  0.25000  0.89722  1
 K  K1  1  0.24420  0.47541  0.24085  1
 K  K2  1  0.24420  0.02459  0.24085  1
 K  K3  1  0.75580  0.52459  0.75915  1
 K  K4  1  0.75580  0.97541  0.75915  1
 O  O1  1  0.30373  0.25000  0.02484  1
 O  O2  1  0.06382  0.25000  0.83448  1
 O  O3  1  0.54683  0.75000  0.19387  1
 O  O4  1  0.77002  0.05955  0.34487  1
 O  O5  1  0.77002  0.44045  0.34487  1
 O  O6  1  0.93618  0.75000  0.16552  1
 O  O7  1  0.45263  0.25000  0.47937  1
 O  O8  1  0.54737  0.75000  0.52063  1
 O  O9  1  0.22998  0.94045  0.65513  1
 O  O10  1  0.22998  0.55955  0.65513  1
 O  O11  1  0.10951  0.75000  0.43891  1
 O  O12  1  0.45317  0.25000  0.80613  1
 O  O13  1  0.89049  0.25000  0.56109  1
 O  O14  1  0.69627  0.75000  0.97516  1
 P  P1  1  0.27781  0.75000  0.56724  1
 P  P2  1  0.72219  0.25000  0.43276  1
 V  V1  1  0.22432  0.25000  0.64184  1
 V  V2  1  0.77568  0.75000  0.35816  1
