CIF file written using JARVIS-Tools package.
data_LiFePO4
_symmetry_space_group_name_H-M  'P2_13'
_cell_length_a       7.13231
_cell_length_b       7.13231
_cell_length_c       7.13231
_cell_angle_alpha    90
_cell_angle_beta     90
_cell_angle_gamma    90

_symmetry_Int_Tables_number  198
_chemical_formula_structural  LiFePO4
_chemical_formula_sum  Li4Fe4P4O6
_cell_volume  362.8189997803958
_cell_formula_units_Z  4
loop_
  _symmetry_equiv_pos_site_id
 _symmetry_equiv_pos_as_xyz
 1  'x, y, z'
loop_
 _atom_site_type_symbol
 _atom_site_label
 _atom_site_symmetry_multiplicity
 _atom_site_fract_x
 _atom_site_fract_y
 _atom_site_fract_z
 _atom_site_fract_occupancy
 Fe  Fe1  1  0.24968  0.75032  0.25032  1
 Fe  Fe2  1  0.25032  0.24968  0.75032  1
 Fe  Fe3  1  0.74968  0.74968  0.74968  1
 Fe  Fe4  1  0.75032  0.25032  0.24968  1
 Li  Li1  1  0.19424  0.69424  0.80576  1
 Li  Li2  1  0.30576  0.30576  0.30576  1
 Li  Li3  1  0.69424  0.80576  0.19424  1
 Li  Li4  1  0.80576  0.19424  0.69424  1
 O  O1  1  0.15794  0.15794  0.15794  1
 O  O2  1  0.32839  0.46784  0.89096  1
 O  O3  1  0.39096  0.17161  0.53216  1
 O  O4  1  0.96784  0.60904  0.67161  1
 O  O5  1  0.17161  0.53216  0.39096  1
 O  O6  1  0.84206  0.65794  0.34206  1
 O  O7  1  0.53216  0.39096  0.17161  1
 O  O8  1  0.10904  0.82839  0.03216  1
 O  O9  1  0.46784  0.89096  0.32839  1
 O  O10  1  0.89096  0.32839  0.46784  1
 O  O11  1  0.67161  0.96784  0.60904  1
 O  O12  1  0.60904  0.67161  0.96784  1
 O  O13  1  0.34206  0.84206  0.65794  1
 O  O14  1  0.82839  0.03216  0.10904  1
 O  O15  1  0.65794  0.34206  0.84206  1
 O  O16  1  0.03216  0.10904  0.82839  1
 P  P1  1  0.03639  0.03639  0.03639  1
 P  P2  1  0.96361  0.53639  0.46361  1
 P  P3  1  0.46361  0.96361  0.53639  1
 P  P4  1  0.53639  0.46361  0.96361  1
