CIF file written using JARVIS-Tools package.
data_LiCe2HO3
_symmetry_space_group_name_H-M  'Immm'
_cell_length_a       3.479
_cell_length_b       3.70377
_cell_length_c       6.7911
_cell_angle_alpha    105.825
_cell_angle_beta     104.841
_cell_angle_gamma    90

_symmetry_Int_Tables_number  71
_chemical_formula_structural  LiCe2HO3
_chemical_formula_sum  LiCe2HO3
_cell_volume  81.1514463708052
_cell_formula_units_Z  1
loop_
  _symmetry_equiv_pos_site_id
 _symmetry_equiv_pos_as_xyz
 1  'x, y, z'
loop_
 _atom_site_type_symbol
 _atom_site_label
 _atom_site_symmetry_multiplicity
 _atom_site_fract_x
 _atom_site_fract_y
 _atom_site_fract_z
 _atom_site_fract_occupancy
 Ce  Ce1  1  0.36170  0.36170  0.72340  1
 Ce  Ce2  1  0.63830  0.63830  0.27660  1
 H  H1  1  0.50000  0.00000  0.00000  1
 Li  Li1  1  0.00000  0.00000  0.00000  1
 O  O1  1  0.00000  0.50000  0.00000  1
 O  O2  1  0.82410  0.82410  0.64819  1
 O  O3  1  0.17590  0.17590  0.35181  1
