CIF file written using JARVIS-Tools package.
data_NbSeCl3
_symmetry_space_group_name_H-M  'P2/c'
_cell_length_a       6.26571
_cell_length_b       6.73339
_cell_length_c       12.04
_cell_angle_alpha    90
_cell_angle_beta     98.8359
_cell_angle_gamma    90

_symmetry_Int_Tables_number  13
_chemical_formula_structural  NbSeCl3
_chemical_formula_sum  Nb4Se4Cl2
_cell_volume  501.9326480242768
_cell_formula_units_Z  4
loop_
  _symmetry_equiv_pos_site_id
 _symmetry_equiv_pos_as_xyz
 1  'x, y, z'
loop_
 _atom_site_type_symbol
 _atom_site_label
 _atom_site_symmetry_multiplicity
 _atom_site_fract_x
 _atom_site_fract_y
 _atom_site_fract_z
 _atom_site_fract_occupancy
 Cl  Cl1  1  0.84154  0.32020  0.95538  1
 Cl  Cl2  1  0.63814  0.20548  0.43297  1
 Cl  Cl3  1  0.36186  0.20548  0.06703  1
 Cl  Cl4  1  0.25288  0.44841  0.80467  1
 Cl  Cl5  1  0.15846  0.67980  0.04462  1
 Cl  Cl6  1  0.63814  0.79452  0.93297  1
 Cl  Cl7  1  0.36186  0.79452  0.56703  1
 Cl  Cl8  1  0.84154  0.67980  0.45538  1
 Cl  Cl9  1  0.74712  0.44841  0.69533  1
 Cl  Cl10  1  0.15846  0.32020  0.54462  1
 Cl  Cl11  1  0.74712  0.55159  0.19533  1
 Cl  Cl12  1  0.25288  0.55159  0.30467  1
 Nb  Nb1  1  0.92608  0.64540  0.85440  1
 Nb  Nb2  1  0.92608  0.35460  0.35440  1
 Nb  Nb3  1  0.07392  0.64540  0.64560  1
 Nb  Nb4  1  0.07392  0.35460  0.14560  1
 Se  Se1  1  0.82580  0.93126  0.69775  1
 Se  Se2  1  0.17420  0.93126  0.80225  1
 Se  Se3  1  0.82580  0.06874  0.19775  1
 Se  Se4  1  0.17420  0.06874  0.30225  1
