CIF file written using JARVIS-Tools package.
data_NiO2
_symmetry_space_group_name_H-M  'Fd-3m'
_cell_length_a       5.61579
_cell_length_b       5.61578
_cell_length_c       5.61579
_cell_angle_alpha    60
_cell_angle_beta     60.0001
_cell_angle_gamma    60

_symmetry_Int_Tables_number  227
_chemical_formula_structural  NiO2
_chemical_formula_sum  Ni4O8
_cell_volume  125.23264417526131
_cell_formula_units_Z  4
loop_
  _symmetry_equiv_pos_site_id
 _symmetry_equiv_pos_as_xyz
 1  'x, y, z'
loop_
 _atom_site_type_symbol
 _atom_site_label
 _atom_site_symmetry_multiplicity
 _atom_site_fract_x
 _atom_site_fract_y
 _atom_site_fract_z
 _atom_site_fract_occupancy
 Ni  Ni1  1  0.50000  0.50000  0.50000  1
 Ni  Ni2  1  0.50000  0.00000  0.50000  1
 Ni  Ni3  1  0.00000  0.50000  0.50000  1
 Ni  Ni4  1  0.50000  0.50000  1.00000  1
 O  O1  1  0.73637  0.73637  0.29089  1
 O  O2  1  0.73637  0.73637  0.73637  1
 O  O3  1  0.26363  0.26363  0.70911  1
 O  O4  1  0.26363  0.70911  0.26363  1
 O  O5  1  0.26363  0.26363  0.26363  1
 O  O6  1  0.70911  0.26363  0.26363  1
 O  O7  1  0.29089  0.73637  0.73637  1
 O  O8  1  0.73637  0.29089  0.73637  1
