CIF file written using JARVIS-Tools package.
data_Mg2SiO4
_symmetry_space_group_name_H-M  'Pbam'
_cell_length_a       2.83275
_cell_length_b       5.021
_cell_length_c       8.86194
_cell_angle_alpha    90
_cell_angle_beta     90
_cell_angle_gamma    90

_symmetry_Int_Tables_number  55
_chemical_formula_structural  Mg2SiO4
_chemical_formula_sum  Mg4Si2O8
_cell_volume  126.04547300579203
_cell_formula_units_Z  2
loop_
  _symmetry_equiv_pos_site_id
 _symmetry_equiv_pos_as_xyz
 1  'x, y, z'
loop_
 _atom_site_type_symbol
 _atom_site_label
 _atom_site_symmetry_multiplicity
 _atom_site_fract_x
 _atom_site_fract_y
 _atom_site_fract_z
 _atom_site_fract_occupancy
 Mg  Mg1  1  0.50000  0.43714  0.81617  1
 Mg  Mg2  1  0.50000  0.56286  0.18383  1
 Mg  Mg3  1  0.50000  0.93714  0.68383  1
 Mg  Mg4  1  0.50000  0.06286  0.31617  1
 O  O1  1  0.00000  0.13976  0.81677  1
 O  O2  1  0.00000  0.86024  0.18323  1
 O  O3  1  0.00000  0.63976  0.68323  1
 O  O4  1  0.00000  0.36024  0.31677  1
 O  O5  1  0.50000  0.27441  0.55031  1
 O  O6  1  0.50000  0.72559  0.44969  1
 O  O7  1  0.50000  0.22559  0.05031  1
 O  O8  1  0.50000  0.77441  0.94969  1
 Si  Si1  1  0.00000  0.50000  0.50000  1
 Si  Si2  1  0.00000  0.00000  0.00000  1
