CIF file written using JARVIS-Tools package.
data_CaZrSi2O7
_symmetry_space_group_name_H-M  'C2'
_cell_length_a       4.72928
_cell_length_b       5.5593
_cell_length_c       5.5593
_cell_angle_alpha    103.319
_cell_angle_beta     97.1085
_cell_angle_gamma    97.1085

_symmetry_Int_Tables_number  5
_chemical_formula_structural  CaZrSi2O7
_chemical_formula_sum  CaZrSi2O7
_cell_volume  139.37218574661713
_cell_formula_units_Z  1
loop_
  _symmetry_equiv_pos_site_id
 _symmetry_equiv_pos_as_xyz
 1  'x, y, z'
loop_
 _atom_site_type_symbol
 _atom_site_label
 _atom_site_symmetry_multiplicity
 _atom_site_fract_x
 _atom_site_fract_y
 _atom_site_fract_z
 _atom_site_fract_occupancy
 Ca  Ca1  1  0.50000  0.29290  0.70710  1
 O  O1  1  0.71275  0.41289  0.11775  1
 O  O2  1  0.28725  0.88225  0.58711  1
 O  O3  1  0.73623  0.03669  0.34532  1
 O  O4  1  0.26377  0.65468  0.96331  1
 O  O5  1  0.00000  0.06040  0.93960  1
 O  O6  1  0.77919  0.62360  0.62371  1
 O  O7  1  0.22081  0.37629  0.37640  1
 Si  Si1  1  0.91907  0.22118  0.20638  1
 Si  Si2  1  0.08093  0.79362  0.77882  1
 Zr  Zr1  1  0.50000  0.68490  0.31510  1
