CIF file written using JARVIS-Tools package.
data_HIO3
_symmetry_space_group_name_H-M  'P2_12_12_1'
_cell_length_a       5.47425
_cell_length_b       5.84151
_cell_length_c       7.67639
_cell_angle_alpha    90
_cell_angle_beta     90
_cell_angle_gamma    90

_symmetry_Int_Tables_number  19
_chemical_formula_structural  HIO3
_chemical_formula_sum  H4I4O2
_cell_volume  245.47482037325307
_cell_formula_units_Z  4
loop_
  _symmetry_equiv_pos_site_id
 _symmetry_equiv_pos_as_xyz
 1  'x, y, z'
loop_
 _atom_site_type_symbol
 _atom_site_label
 _atom_site_symmetry_multiplicity
 _atom_site_fract_x
 _atom_site_fract_y
 _atom_site_fract_z
 _atom_site_fract_occupancy
 H  H1  1  0.26006  0.67425  0.63333  1
 H  H2  1  0.76006  0.82575  0.36667  1
 H  H3  1  0.73994  0.17425  0.86667  1
 H  H4  1  0.23994  0.32575  0.13333  1
 I  I1  1  0.29041  0.09278  0.66128  1
 I  I2  1  0.79041  0.40722  0.33872  1
 I  I3  1  0.70959  0.59278  0.83872  1
 I  I4  1  0.20959  0.90722  0.16128  1
 O  O1  1  0.92486  0.02290  0.25747  1
 O  O2  1  0.90363  0.33698  0.55464  1
 O  O3  1  0.07514  0.52290  0.24253  1
 O  O4  1  0.57514  0.97710  0.75747  1
 O  O5  1  0.42486  0.47710  0.74253  1
 O  O6  1  0.09637  0.83698  0.94536  1
 O  O7  1  0.65954  0.69714  0.41909  1
 O  O8  1  0.15954  0.80286  0.58091  1
 O  O9  1  0.34046  0.19714  0.08091  1
 O  O10  1  0.59637  0.66302  0.05464  1
 O  O11  1  0.84046  0.30286  0.91909  1
 O  O12  1  0.40363  0.16302  0.44536  1
