CIF file written using JARVIS-Tools package.
data_CaH12Cl2O6
_symmetry_space_group_name_H-M  'P321'
_cell_length_a       7.84266
_cell_length_b       7.84266
_cell_length_c       3.87768
_cell_angle_alpha    90
_cell_angle_beta     90
_cell_angle_gamma    120

_symmetry_Int_Tables_number  150
_chemical_formula_structural  CaH12Cl2O6
_chemical_formula_sum  CaH2Cl2O6
_cell_volume  206.55185181639115
_cell_formula_units_Z  1
loop_
  _symmetry_equiv_pos_site_id
 _symmetry_equiv_pos_as_xyz
 1  'x, y, z'
loop_
 _atom_site_type_symbol
 _atom_site_label
 _atom_site_symmetry_multiplicity
 _atom_site_fract_x
 _atom_site_fract_y
 _atom_site_fract_z
 _atom_site_fract_occupancy
 Ca  Ca1  1  0.00000  0.00000  0.00000  1
 Cl  Cl1  1  0.33333  0.66667  0.57222  1
 Cl  Cl2  1  0.66667  0.33333  0.42778  1
 H  H1  1  0.88491  0.23334  0.52710  1
 H  H2  1  0.23334  0.88491  0.47290  1
 H  H3  1  0.11509  0.34843  0.47290  1
 H  H4  1  0.76666  0.65157  0.52710  1
 H  H5  1  0.65157  0.76666  0.47290  1
 H  H6  1  0.89934  0.56083  0.10482  1
 H  H7  1  0.56083  0.89934  0.89518  1
 H  H8  1  0.33851  0.43917  0.89518  1
 H  H9  1  0.10066  0.66149  0.89518  1
 H  H10  1  0.66149  0.10066  0.10482  1
 H  H11  1  0.43917  0.33851  0.10482  1
 H  H12  1  0.34843  0.11509  0.52710  1
 O  O1  1  0.31416  0.31416  0.00000  1
 O  O2  1  0.68584  -0.00000  0.00000  1
 O  O3  1  0.78537  0.78537  0.50000  1
 O  O4  1  0.21463  0.00000  0.50000  1
 O  O5  1  0.00000  0.21463  0.50000  1
 O  O6  1  -0.00000  0.68584  0.00000  1
