CIF file written using JARVIS-Tools package.
data_TmH3O3
_symmetry_space_group_name_H-M  'P2_1/c'
_cell_length_a       5.82581
_cell_length_b       10.3169
_cell_length_c       4.95296
_cell_angle_alpha    90
_cell_angle_beta     80.4522
_cell_angle_gamma    90

_symmetry_Int_Tables_number  14
_chemical_formula_structural  TmH3O3
_chemical_formula_sum  Tm4H2O2
_cell_volume  293.5708019564595
_cell_formula_units_Z  4
loop_
  _symmetry_equiv_pos_site_id
 _symmetry_equiv_pos_as_xyz
 1  'x, y, z'
loop_
 _atom_site_type_symbol
 _atom_site_label
 _atom_site_symmetry_multiplicity
 _atom_site_fract_x
 _atom_site_fract_y
 _atom_site_fract_z
 _atom_site_fract_occupancy
 H  H1  1  0.15928  0.07227  0.19952  1
 H  H2  1  0.37206  0.30405  0.36586  1
 H  H3  1  0.12794  0.80405  0.63414  1
 H  H4  1  0.19556  0.63641  0.44929  1
 H  H5  1  0.30444  0.13641  0.55071  1
 H  H6  1  0.34072  0.57227  0.80048  1
 H  H7  1  0.62794  0.69595  0.63414  1
 H  H8  1  0.80444  0.36359  0.55071  1
 H  H9  1  0.69556  0.86359  0.44929  1
 H  H10  1  0.84072  0.92773  0.80048  1
 H  H11  1  0.87206  0.19595  0.36586  1
 H  H12  1  0.65928  0.42773  0.19952  1
 O  O1  1  0.31802  0.03909  0.21064  1
 O  O2  1  0.10052  0.82699  0.83160  1
 O  O3  1  0.16343  0.70600  0.32315  1
 O  O4  1  0.18198  0.53909  0.78936  1
 O  O5  1  0.89948  0.17301  0.16840  1
 O  O6  1  0.33657  0.20600  0.67685  1
 O  O7  1  0.68198  0.96091  0.78936  1
 O  O8  1  0.81802  0.46091  0.21064  1
 O  O9  1  0.83657  0.29400  0.67685  1
 O  O10  1  0.66343  0.79400  0.32315  1
 O  O11  1  0.39948  0.32699  0.16840  1
 O  O12  1  0.60052  0.67301  0.83160  1
 Tm  Tm1  1  0.90108  0.65889  0.05639  1
 Tm  Tm2  1  0.59892  0.15889  0.94361  1
 Tm  Tm3  1  0.40108  0.84111  0.05639  1
 Tm  Tm4  1  0.09892  0.34111  0.94361  1
