CIF file written using JARVIS-Tools package.
data_MgSnO2
_symmetry_space_group_name_H-M  'P-1'
_cell_length_a       3.32548
_cell_length_b       8.3644
_cell_length_c       9.32991
_cell_angle_alpha    74.3917
_cell_angle_beta     90.0913
_cell_angle_gamma    87.5218

_symmetry_Int_Tables_number  2
_chemical_formula_structural  MgSnO2
_chemical_formula_sum  Mg4Sn4O8
_cell_volume  249.689775753704
_cell_formula_units_Z  4
loop_
  _symmetry_equiv_pos_site_id
 _symmetry_equiv_pos_as_xyz
 1  'x, y, z'
loop_
 _atom_site_type_symbol
 _atom_site_label
 _atom_site_symmetry_multiplicity
 _atom_site_fract_x
 _atom_site_fract_y
 _atom_site_fract_z
 _atom_site_fract_occupancy
 Mg  Mg1  1  0.24724  0.35094  0.00638  1
 Mg  Mg2  1  0.72852  0.67727  0.97354  1
 Mg  Mg3  1  0.67381  0.12306  0.77870  1
 Mg  Mg4  1  0.30197  0.90513  0.20122  1
 O  O1  1  0.20018  0.58810  0.84363  1
 O  O2  1  0.80512  0.81050  0.30533  1
 O  O3  1  0.17066  0.21770  0.67460  1
 O  O4  1  0.77558  0.44010  0.13628  1
 O  O5  1  0.23261  0.74137  0.08080  1
 O  O6  1  0.27765  0.14398  0.18634  1
 O  O7  1  0.74314  0.28683  0.89912  1
 O  O8  1  0.69811  0.88422  0.79357  1
 Sn  Sn1  1  0.06984  0.57932  0.29124  1
 Sn  Sn2  1  0.76823  0.20492  0.31471  1
 Sn  Sn3  1  0.20754  0.82329  0.66520  1
 Sn  Sn4  1  0.90591  0.44888  0.68868  1
