CIF file written using JARVIS-Tools package.
data_CdSO3
_symmetry_space_group_name_H-M  'P2_1/c'
_cell_length_a       4.47992
_cell_length_b       8.76121
_cell_length_c       7.24062
_cell_angle_alpha    90
_cell_angle_beta     93.5037
_cell_angle_gamma    90

_symmetry_Int_Tables_number  14
_chemical_formula_structural  CdSO3
_chemical_formula_sum  Cd4S4O2
_cell_volume  283.6593830589294
_cell_formula_units_Z  4
loop_
  _symmetry_equiv_pos_site_id
 _symmetry_equiv_pos_as_xyz
 1  'x, y, z'
loop_
 _atom_site_type_symbol
 _atom_site_label
 _atom_site_symmetry_multiplicity
 _atom_site_fract_x
 _atom_site_fract_y
 _atom_site_fract_z
 _atom_site_fract_occupancy
 Cd  Cd1  1  0.76670  0.70704  0.51611  1
 Cd  Cd2  1  0.23330  0.20704  0.98389  1
 Cd  Cd3  1  0.23330  0.29296  0.48389  1
 Cd  Cd4  1  0.76670  0.79296  0.01611  1
 O  O1  1  0.70747  0.90042  0.73017  1
 O  O2  1  0.71139  0.13252  0.91203  1
 O  O3  1  0.29253  0.09958  0.26983  1
 O  O4  1  0.70747  0.59958  0.23017  1
 O  O5  1  0.29253  0.40042  0.76983  1
 O  O6  1  0.07349  0.10394  0.68461  1
 O  O7  1  0.07349  0.39606  0.18461  1
 O  O8  1  0.28861  0.86748  0.08797  1
 O  O9  1  0.92651  0.60394  0.81539  1
 O  O10  1  0.71139  0.36748  0.41203  1
 O  O11  1  0.92651  0.89606  0.31539  1
 O  O12  1  0.28861  0.63252  0.58797  1
 S  S1  1  0.26112  0.92477  0.29022  1
 S  S2  1  0.73888  0.42477  0.20978  1
 S  S3  1  0.73888  0.07523  0.70978  1
 S  S4  1  0.26112  0.57523  0.79022  1
