CIF file written using JARVIS-Tools package.
data_ThTi2O6
_symmetry_space_group_name_H-M  'C2/c'
_cell_length_a       5.24189
_cell_length_b       6.93136
_cell_length_c       6.93136
_cell_angle_alpha    76.9494
_cell_angle_beta     70.5335
_cell_angle_gamma    70.5336

_symmetry_Int_Tables_number  15
_chemical_formula_structural  ThTi2O6
_chemical_formula_sum  Th2Ti4O2
_cell_volume  221.99851094670598
_cell_formula_units_Z  2
loop_
  _symmetry_equiv_pos_site_id
 _symmetry_equiv_pos_as_xyz
 1  'x, y, z'
loop_
 _atom_site_type_symbol
 _atom_site_label
 _atom_site_symmetry_multiplicity
 _atom_site_fract_x
 _atom_site_fract_y
 _atom_site_fract_z
 _atom_site_fract_occupancy
 O  O1  1  0.15623  0.90411  0.82307  1
 O  O2  1  0.03068  0.60229  0.11836  1
 O  O3  1  0.53068  0.11836  0.60229  1
 O  O4  1  0.96932  0.39771  0.88164  1
 O  O5  1  0.02898  0.27041  0.45217  1
 O  O6  1  0.47102  0.54783  0.72959  1
 O  O7  1  0.65623  0.82307  0.90411  1
 O  O8  1  0.46932  0.88164  0.39771  1
 O  O9  1  0.34377  0.17693  0.09589  1
 O  O10  1  0.52898  0.45217  0.27041  1
 O  O11  1  0.97102  0.72959  0.54783  1
 O  O12  1  0.84377  0.09589  0.17693  1
 Th  Th1  1  0.25000  0.81239  0.18761  1
 Th  Th2  1  0.75000  0.18761  0.81239  1
 Ti  Ti1  1  0.43785  0.18889  0.35229  1
 Ti  Ti2  1  0.06215  0.64771  0.81111  1
 Ti  Ti3  1  0.56215  0.81111  0.64771  1
 Ti  Ti4  1  0.93785  0.35229  0.18889  1
