CIF file written using JARVIS-Tools package.
data_K3AlH6
_symmetry_space_group_name_H-M  'P2_1/c'
_cell_length_a       6.01453
_cell_length_b       5.96617
_cell_length_c       10.3412
_cell_angle_alpha    90
_cell_angle_beta     124.994
_cell_angle_gamma    90

_symmetry_Int_Tables_number  14
_chemical_formula_structural  K3AlH6
_chemical_formula_sum  K6Al2H2
_cell_volume  303.99413660990353
_cell_formula_units_Z  2
loop_
  _symmetry_equiv_pos_site_id
 _symmetry_equiv_pos_as_xyz
 1  'x, y, z'
loop_
 _atom_site_type_symbol
 _atom_site_label
 _atom_site_symmetry_multiplicity
 _atom_site_fract_x
 _atom_site_fract_y
 _atom_site_fract_z
 _atom_site_fract_occupancy
 Al  Al1  1  -0.00000  0.50000  0.50000  1
 Al  Al2  1  0.00000  0.00000  0.00000  1
 H  H1  1  0.73257  0.98815  0.79537  1
 H  H2  1  0.86091  0.73765  0.53393  1
 H  H3  1  0.26743  0.01185  0.20463  1
 H  H4  1  0.13909  0.26235  0.46607  1
 H  H5  1  0.86091  0.76235  0.03393  1
 H  H6  1  0.13909  0.23765  0.96607  1
 H  H7  1  0.80177  0.32078  0.53352  1
 H  H8  1  0.80177  0.17922  0.03352  1
 H  H9  1  0.73257  0.51185  0.29537  1
 H  H10  1  0.19823  0.82078  0.96648  1
 H  H11  1  0.26743  0.48815  0.70463  1
 H  H12  1  0.19823  0.67922  0.46648  1
 K  K1  1  0.75679  0.52223  0.75238  1
 K  K2  1  0.24321  0.02223  0.74762  1
 K  K3  1  0.24321  0.47777  0.24762  1
 K  K4  1  0.75679  0.97777  0.25238  1
 K  K5  1  0.50000  0.00000  0.50000  1
 K  K6  1  0.50000  0.50000  0.00000  1
