CIF file written using JARVIS-Tools package.
data_Tb2KCuS4
_symmetry_space_group_name_H-M  'Cmcm'
_cell_length_a       3.96097
_cell_length_b       7.0084
_cell_length_c       13.7282
_cell_angle_alpha    90
_cell_angle_beta     90
_cell_angle_gamma    106.415

_symmetry_Int_Tables_number  63
_chemical_formula_structural  Tb2KCuS4
_chemical_formula_sum  Tb4K2Cu2S8
_cell_volume  365.5633661014088
_cell_formula_units_Z  2
loop_
  _symmetry_equiv_pos_site_id
 _symmetry_equiv_pos_as_xyz
 1  'x, y, z'
loop_
 _atom_site_type_symbol
 _atom_site_label
 _atom_site_symmetry_multiplicity
 _atom_site_fract_x
 _atom_site_fract_y
 _atom_site_fract_z
 _atom_site_fract_occupancy
 Cu  Cu1  1  0.83828  0.67656  0.75000  1
 Cu  Cu2  1  0.16172  0.32344  0.25000  1
 K  K1  1  0.88990  0.77980  0.25000  1
 K  K2  1  0.11010  0.22020  0.75000  1
 S  S1  1  0.00000  0.00000  0.50000  1
 S  S2  1  0.00000  0.00000  0.00000  1
 S  S3  1  0.26453  0.52906  0.11186  1
 S  S4  1  0.73547  0.47094  0.88814  1
 S  S5  1  0.43369  0.86737  0.75000  1
 S  S6  1  0.26453  0.52906  0.38814  1
 S  S7  1  0.56631  0.13263  0.25000  1
 S  S8  1  0.73547  0.47094  0.61186  1
 Tb  Tb1  1  0.36580  0.73160  0.93663  1
 Tb  Tb2  1  0.63420  0.26840  0.43663  1
 Tb  Tb3  1  0.36580  0.73160  0.56337  1
 Tb  Tb4  1  0.63420  0.26840  0.06337  1
