CIF file written using JARVIS-Tools package.
data_Li5Fe3Ni2O10
_symmetry_space_group_name_H-M  'P-1'
_cell_length_a       4.99383
_cell_length_b       5.08204
_cell_length_c       7.71446
_cell_angle_alpha    69.3949
_cell_angle_beta     70.232
_cell_angle_gamma    81.1963

_symmetry_Int_Tables_number  2
_chemical_formula_structural  Li5Fe3Ni2O10
_chemical_formula_sum  Li5Fe3Ni2O0
_cell_volume  172.3314270950867
_cell_formula_units_Z  1
loop_
  _symmetry_equiv_pos_site_id
 _symmetry_equiv_pos_as_xyz
 1  'x, y, z'
loop_
 _atom_site_type_symbol
 _atom_site_label
 _atom_site_symmetry_multiplicity
 _atom_site_fract_x
 _atom_site_fract_y
 _atom_site_fract_z
 _atom_site_fract_occupancy
 Fe  Fe1  1  0.50000  -0.00000  0.00000  1
 Fe  Fe2  1  0.00826  0.30166  0.89408  1
 Fe  Fe3  1  0.99174  0.69834  0.10592  1
 Li  Li1  1  0.49905  0.80426  0.41702  1
 Li  Li2  1  0.50888  0.60833  0.78355  1
 Li  Li3  1  -0.00000  0.50000  0.50000  1
 Li  Li4  1  0.49112  0.39167  0.21645  1
 Li  Li5  1  0.50095  0.19574  0.58298  1
 Ni  Ni1  1  0.00512  0.89523  0.69247  1
 Ni  Ni2  1  -0.00512  0.10477  0.30753  1
 O  O1  1  0.23781  0.13501  0.45168  1
 O  O2  1  0.25192  0.31836  0.04256  1
 O  O3  1  0.23065  0.92415  0.85782  1
 O  O4  1  0.74808  0.68164  0.95744  1
 O  O5  1  0.76219  0.86499  0.54832  1
 O  O6  1  0.24000  0.76396  0.22765  1
 O  O7  1  0.22392  0.53799  0.66984  1
 O  O8  1  0.77608  0.46201  0.33016  1
 O  O9  1  0.76000  0.23604  0.77235  1
 O  O10  1  0.76935  0.07585  0.14218  1
