CIF file written using JARVIS-Tools package.
data_TlGaSe2
_symmetry_space_group_name_H-M  'I4/mcm'
_cell_length_a       6.51638
_cell_length_b       6.58775
_cell_length_c       6.58775
_cell_angle_alpha    75.8405
_cell_angle_beta     60.3573
_cell_angle_gamma    60.3572

_symmetry_Int_Tables_number  140
_chemical_formula_structural  TlGaSe2
_chemical_formula_sum  Tl2Ga2Se4
_cell_volume  213.62201906989173
_cell_formula_units_Z  2
loop_
  _symmetry_equiv_pos_site_id
 _symmetry_equiv_pos_as_xyz
 1  'x, y, z'
loop_
 _atom_site_type_symbol
 _atom_site_label
 _atom_site_symmetry_multiplicity
 _atom_site_fract_x
 _atom_site_fract_y
 _atom_site_fract_z
 _atom_site_fract_occupancy
 Ga  Ga1  1  0.25000  0.50000  0.50000  1
 Ga  Ga2  1  0.75000  0.50000  0.50000  1
 Se  Se1  1  0.83819  0.50000  0.82361  1
 Se  Se2  1  0.66181  0.17639  0.50000  1
 Se  Se3  1  0.16181  0.50000  0.17639  1
 Se  Se4  1  0.33819  0.82361  0.50000  1
 Tl  Tl1  1  0.75000  -0.00000  0.00000  1
 Tl  Tl2  1  0.25000  0.00000  -0.00000  1
