CIF file written using JARVIS-Tools package.
data_Co3OF5
_symmetry_space_group_name_H-M  'P-1'
_cell_length_a       5.53626
_cell_length_b       5.5821
_cell_length_c       7.35543
_cell_angle_alpha    72.1867
_cell_angle_beta     71.8682
_cell_angle_gamma    70.4792

_symmetry_Int_Tables_number  2
_chemical_formula_structural  Co3OF5
_chemical_formula_sum  Co6O2F0
_cell_volume  198.3653512354746
_cell_formula_units_Z  2
loop_
  _symmetry_equiv_pos_site_id
 _symmetry_equiv_pos_as_xyz
 1  'x, y, z'
loop_
 _atom_site_type_symbol
 _atom_site_label
 _atom_site_symmetry_multiplicity
 _atom_site_fract_x
 _atom_site_fract_y
 _atom_site_fract_z
 _atom_site_fract_occupancy
 Co  Co1  1  0.50000  0.50000  -0.00000  1
 Co  Co2  1  0.50000  0.50000  0.50000  1
 Co  Co3  1  0.87392  0.80058  0.16252  1
 Co  Co4  1  0.82685  0.81676  0.67658  1
 Co  Co5  1  0.17315  0.18324  0.32342  1
 Co  Co6  1  0.12608  0.19942  0.83748  1
 F  F1  1  0.80048  0.18951  0.50327  1
 F  F2  1  0.56000  0.11385  0.16678  1
 F  F3  1  0.60892  0.59114  0.19914  1
 F  F4  1  0.19952  0.81049  0.49673  1
 F  F5  1  0.92737  0.93460  0.86553  1
 F  F6  1  0.07263  0.06540  0.13447  1
 F  F7  1  0.39108  0.40886  0.80086  1
 F  F8  1  0.25689  0.27611  0.53539  1
 F  F9  1  0.74311  0.72389  0.46461  1
 F  F10  1  0.44000  0.88615  0.83322  1
 O  O1  1  0.83549  0.48102  0.84075  1
 O  O2  1  0.16451  0.51898  0.15925  1
