CIF file written using JARVIS-Tools package.
data_Li2CrO3
_symmetry_space_group_name_H-M  'C2/c'
_cell_length_a       5.7933
_cell_length_b       5.7933
_cell_length_c       5.30964
_cell_angle_alpha    57.1739
_cell_angle_beta     122.826
_cell_angle_gamma    120.638

_symmetry_Int_Tables_number  15
_chemical_formula_structural  Li2CrO3
_chemical_formula_sum  Li4Cr2O6
_cell_volume  119.81932109149301
_cell_formula_units_Z  2
loop_
  _symmetry_equiv_pos_site_id
 _symmetry_equiv_pos_as_xyz
 1  'x, y, z'
loop_
 _atom_site_type_symbol
 _atom_site_label
 _atom_site_symmetry_multiplicity
 _atom_site_fract_x
 _atom_site_fract_y
 _atom_site_fract_z
 _atom_site_fract_occupancy
 Cr  Cr1  1  0.91383  0.91383  0.75000  1
 Cr  Cr2  1  0.08617  0.08617  0.25000  1
 Li  Li1  1  0.26011  0.58121  0.75705  1
 Li  Li2  1  0.41879  0.73989  0.25705  1
 Li  Li3  1  0.58121  0.26011  0.74295  1
 Li  Li4  1  0.73989  0.41879  0.24295  1
 O  O1  1  0.21810  0.91811  0.72997  1
 O  O2  1  0.08189  0.78190  0.22997  1
 O  O3  1  0.60833  0.60833  0.75000  1
 O  O4  1  0.39167  0.39167  0.25000  1
 O  O5  1  0.91811  0.21810  0.77003  1
 O  O6  1  0.78190  0.08189  0.27003  1
