CIF file written using JARVIS-Tools package.
data_Co3OF5
_symmetry_space_group_name_H-M  'P1'
_cell_length_a       4.66153
_cell_length_b       5.62593
_cell_length_c       7.66783
_cell_angle_alpha    93.5461
_cell_angle_beta     90.1748
_cell_angle_gamma    90.4151

_symmetry_Int_Tables_number  1
_chemical_formula_structural  Co3OF5
_chemical_formula_sum  Co6O2F0
_cell_volume  200.7011456843684
_cell_formula_units_Z  2
loop_
  _symmetry_equiv_pos_site_id
 _symmetry_equiv_pos_as_xyz
 1  'x, y, z'
loop_
 _atom_site_type_symbol
 _atom_site_label
 _atom_site_symmetry_multiplicity
 _atom_site_fract_x
 _atom_site_fract_y
 _atom_site_fract_z
 _atom_site_fract_occupancy
 Co  Co1  1  0.49026  0.51929  0.00365  1
 Co  Co2  1  0.47258  0.82833  0.32440  1
 Co  Co3  1  0.50264  0.16055  0.67492  1
 Co  Co4  1  0.01487  0.66390  0.64021  1
 Co  Co5  1  0.01550  0.35654  0.34206  1
 Co  Co6  1  0.01602  0.98073  0.01314  1
 F  F1  1  0.80372  0.70019  0.88519  1
 F  F2  1  0.20315  0.29583  0.10467  1
 F  F3  1  0.29831  0.46357  0.76806  1
 F  F4  1  0.19612  0.96247  0.76665  1
 F  F5  1  0.68511  0.86285  0.55411  1
 F  F6  1  0.78559  0.03344  0.24078  1
 F  F7  1  0.70509  0.19835  0.90917  1
 F  F8  1  0.29417  0.14038  0.44261  1
 F  F9  1  0.71187  0.52988  0.22880  1
 F  F10  1  0.79435  0.36137  0.57105  1
 O  O1  1  0.30087  0.79753  0.10683  1
 O  O2  1  0.20979  0.64479  0.42369  1
