CIF file written using JARVIS-Tools package.
data_LiBeSb
_symmetry_space_group_name_H-M  'P6_3mc'
_cell_length_a       4.16612
_cell_length_b       4.16612
_cell_length_c       6.78527
_cell_angle_alpha    90
_cell_angle_beta     90
_cell_angle_gamma    120

_symmetry_Int_Tables_number  186
_chemical_formula_structural  LiBeSb
_chemical_formula_sum  Li2Be2Sb2
_cell_volume  101.99120766055695
_cell_formula_units_Z  2
loop_
  _symmetry_equiv_pos_site_id
 _symmetry_equiv_pos_as_xyz
 1  'x, y, z'
loop_
 _atom_site_type_symbol
 _atom_site_label
 _atom_site_symmetry_multiplicity
 _atom_site_fract_x
 _atom_site_fract_y
 _atom_site_fract_z
 _atom_site_fract_occupancy
 Be  Be1  1  0.33333  0.66667  0.00664  1
 Be  Be2  1  0.66667  0.33333  0.50664  1
 Li  Li1  1  0.00000  0.00000  0.15406  1
 Li  Li2  1  0.00000  0.00000  0.65406  1
 Sb  Sb1  1  0.33333  0.66667  0.38930  1
 Sb  Sb2  1  0.66667  0.33333  0.88930  1
