CIF file written using JARVIS-Tools package.
data_AlTlSe2
_symmetry_space_group_name_H-M  'I4/mcm'
_cell_length_a       6.43062
_cell_length_b       6.58916
_cell_length_c       6.58917
_cell_angle_alpha    76.2248
_cell_angle_beta     60.7928
_cell_angle_gamma    60.7928

_symmetry_Int_Tables_number  140
_chemical_formula_structural  AlTlSe2
_chemical_formula_sum  Al2Tl2Se4
_cell_volume  212.7173480305381
_cell_formula_units_Z  2
loop_
  _symmetry_equiv_pos_site_id
 _symmetry_equiv_pos_as_xyz
 1  'x, y, z'
loop_
 _atom_site_type_symbol
 _atom_site_label
 _atom_site_symmetry_multiplicity
 _atom_site_fract_x
 _atom_site_fract_y
 _atom_site_fract_z
 _atom_site_fract_occupancy
 Al  Al1  1  0.25000  0.50000  0.50000  1
 Al  Al2  1  0.75000  0.50000  0.50000  1
 Se  Se1  1  0.84083  0.50000  0.81833  1
 Se  Se2  1  0.65917  0.18167  0.50000  1
 Se  Se3  1  0.15917  0.50000  0.18167  1
 Se  Se4  1  0.34083  0.81833  0.50000  1
 Tl  Tl1  1  0.75000  0.00000  0.00000  1
 Tl  Tl2  1  0.25000  0.00000  0.00000  1
