CIF file written using JARVIS-Tools package.
data_Li7Sb2S2
_symmetry_space_group_name_H-M  'P-1'
_cell_length_a       5.64931
_cell_length_b       8.7978
_cell_length_c       9.84172
_cell_angle_alpha    67.1969
_cell_angle_beta     77.3515
_cell_angle_gamma    75.6258

_symmetry_Int_Tables_number  2
_chemical_formula_structural  Li7Sb2S2
_chemical_formula_sum  Li4Sb4S4
_cell_volume  432.6548490753776
_cell_formula_units_Z  2
loop_
  _symmetry_equiv_pos_site_id
 _symmetry_equiv_pos_as_xyz
 1  'x, y, z'
loop_
 _atom_site_type_symbol
 _atom_site_label
 _atom_site_symmetry_multiplicity
 _atom_site_fract_x
 _atom_site_fract_y
 _atom_site_fract_z
 _atom_site_fract_occupancy
 Li  Li1  1  0.55152  0.43854  0.87034  1
 Li  Li2  1  0.60661  0.25490  0.66972  1
 Li  Li3  1  0.10151  0.25862  0.79911  1
 Li  Li4  1  0.55800  0.94053  0.87903  1
 Li  Li5  1  0.34011  0.88909  0.55287  1
 Li  Li6  1  0.79438  0.65181  0.51915  1
 Li  Li7  1  0.92560  0.07918  0.12775  1
 Li  Li8  1  0.07440  0.92082  0.87225  1
 Li  Li9  1  0.20562  0.34819  0.48085  1
 Li  Li10  1  0.65989  0.11091  0.44713  1
 Li  Li11  1  0.44200  0.05947  0.12097  1
 Li  Li12  1  0.89849  0.74138  0.20089  1
 Li  Li13  1  0.44848  0.56146  0.12966  1
 Li  Li14  1  0.39339  0.74510  0.33028  1
 S  S1  1  0.34935  0.07667  0.66345  1
 S  S2  1  0.65065  0.92333  0.33655  1
 S  S3  1  0.73445  0.15174  0.90540  1
 S  S4  1  0.26555  0.84826  0.09460  1
 Sb  Sb1  1  0.88413  0.63217  0.87656  1
 Sb  Sb2  1  0.25049  0.56866  0.63425  1
 Sb  Sb3  1  0.74951  0.43134  0.36575  1
 Sb  Sb4  1  0.11587  0.36783  0.12344  1
