CIF file written using JARVIS-Tools package.
data_Li4Mn3FeP4O16
_symmetry_space_group_name_H-M  'Pm'
_cell_length_a       4.73345
_cell_length_b       6.08074
_cell_length_c       10.419
_cell_angle_alpha    90
_cell_angle_beta     90.0661
_cell_angle_gamma    90

_symmetry_Int_Tables_number  6
_chemical_formula_structural  Li4Mn3FeP4O16
_chemical_formula_sum  Li4Mn3FeP4O6
_cell_volume  299.8876994145077
_cell_formula_units_Z  1
loop_
  _symmetry_equiv_pos_site_id
 _symmetry_equiv_pos_as_xyz
 1  'x, y, z'
loop_
 _atom_site_type_symbol
 _atom_site_label
 _atom_site_symmetry_multiplicity
 _atom_site_fract_x
 _atom_site_fract_y
 _atom_site_fract_z
 _atom_site_fract_occupancy
 Fe  Fe1  1  0.03214  0.00000  0.28155  1
 Li  Li1  1  0.00261  0.24918  0.00235  1
 Li  Li2  1  0.00261  0.75082  0.00235  1
 Li  Li3  1  0.49814  0.75085  0.49857  1
 Li  Li4  1  0.49814  0.24915  0.49857  1
 Mn  Mn1  1  0.97108  0.50000  0.71875  1
 Mn  Mn2  1  0.52832  0.50000  0.21915  1
 Mn  Mn3  1  0.47453  0.00000  0.78125  1
 O  O1  1  0.77935  0.20260  0.65951  1
 O  O2  1  0.72685  0.20280  0.16378  1
 O  O3  1  0.73699  0.50000  0.90639  1
 O  O4  1  0.78824  0.00000  0.45101  1
 O  O5  1  0.77935  0.79740  0.65951  1
 O  O6  1  0.21152  0.29629  0.33646  1
 O  O7  1  0.71409  0.00000  0.95582  1
 O  O8  1  0.75686  0.50000  0.40694  1
 O  O9  1  0.28752  0.50000  0.04667  1
 O  O10  1  0.23742  0.00000  0.59239  1
 O  O11  1  0.27961  0.29700  0.83869  1
 O  O12  1  0.26669  0.00000  0.09702  1
 O  O13  1  0.72685  0.79720  0.16378  1
 O  O14  1  0.21152  0.70371  0.33646  1
 O  O15  1  0.27961  0.70300  0.83869  1
 O  O16  1  0.21155  0.50000  0.54441  1
 P  P1  1  0.91349  0.00000  0.58908  1
 P  P2  1  0.59100  0.00000  0.09422  1
 P  P3  1  0.41316  0.50000  0.90890  1
 P  P4  1  0.08073  0.50000  0.40770  1
