CIF file written using JARVIS-Tools package.
data_MoSBr
_symmetry_space_group_name_H-M  'F-43m'
_cell_length_a       7.07694
_cell_length_b       7.07694
_cell_length_c       7.07694
_cell_angle_alpha    60
_cell_angle_beta     60
_cell_angle_gamma    60

_symmetry_Int_Tables_number  216
_chemical_formula_structural  MoSBr
_chemical_formula_sum  Mo4S4Br4
_cell_volume  250.62322566213248
_cell_formula_units_Z  4
loop_
  _symmetry_equiv_pos_site_id
 _symmetry_equiv_pos_as_xyz
 1  'x, y, z'
loop_
 _atom_site_type_symbol
 _atom_site_label
 _atom_site_symmetry_multiplicity
 _atom_site_fract_x
 _atom_site_fract_y
 _atom_site_fract_z
 _atom_site_fract_occupancy
 Br  Br1  1  0.12738  0.12738  0.61785  1
 Br  Br2  1  0.12738  0.12738  0.12738  1
 Br  Br3  1  0.61785  0.12738  0.12738  1
 Br  Br4  1  0.12738  0.61785  0.12738  1
 Mo  Mo1  1  0.40158  0.40158  0.79526  1
 Mo  Mo2  1  0.79526  0.40158  0.40158  1
 Mo  Mo3  1  0.40158  0.40158  0.40158  1
 Mo  Mo4  1  0.40158  0.79526  0.40158  1
 S  S1  1  0.63231  0.63231  0.63231  1
 S  S2  1  0.63231  0.63231  0.10307  1
 S  S3  1  0.63231  0.10307  0.63231  1
 S  S4  1  0.10307  0.63231  0.63231  1
