CIF file written using JARVIS-Tools package.
data_LiCrSnO4
_symmetry_space_group_name_H-M  'Imma'
_cell_length_a       6.28368
_cell_length_b       6.09962
_cell_length_c       6.09962
_cell_angle_alpha    58.589
_cell_angle_beta     58.9967
_cell_angle_gamma    58.9967

_symmetry_Int_Tables_number  74
_chemical_formula_structural  LiCrSnO4
_chemical_formula_sum  Li2Cr2Sn2O8
_cell_volume  161.00755045286834
_cell_formula_units_Z  2
loop_
  _symmetry_equiv_pos_site_id
 _symmetry_equiv_pos_as_xyz
 1  'x, y, z'
loop_
 _atom_site_type_symbol
 _atom_site_label
 _atom_site_symmetry_multiplicity
 _atom_site_fract_x
 _atom_site_fract_y
 _atom_site_fract_z
 _atom_site_fract_occupancy
 Cr  Cr1  1  0.50000  -0.00000  0.50000  1
 Cr  Cr2  1  0.50000  0.50000  0.00000  1
 Li  Li1  1  0.12471  0.12529  0.12529  1
 Li  Li2  1  0.87529  0.87471  0.87471  1
 O  O1  1  0.27548  0.25832  0.25832  1
 O  O2  1  0.26356  0.25075  0.72213  1
 O  O3  1  0.26356  0.72213  0.25075  1
 O  O4  1  0.70788  0.25832  0.25832  1
 O  O5  1  0.29212  0.74168  0.74168  1
 O  O6  1  0.73644  0.74925  0.27787  1
 O  O7  1  0.73644  0.27787  0.74925  1
 O  O8  1  0.72452  0.74168  0.74168  1
 Sn  Sn1  1  -0.00000  0.50000  0.50000  1
 Sn  Sn2  1  0.50000  0.50000  0.50000  1
