CIF file written using JARVIS-Tools package.
data_SmAu
_symmetry_space_group_name_H-M  'Cmcm'
_cell_length_a       3.83596
_cell_length_b       4.70521
_cell_length_c       5.88653
_cell_angle_alpha    90
_cell_angle_beta     70.9844
_cell_angle_gamma    90

_symmetry_Int_Tables_number  63
_chemical_formula_structural  SmAu
_chemical_formula_sum  Sm2Au2
_cell_volume  100.44805629605159
_cell_formula_units_Z  2
loop_
  _symmetry_equiv_pos_site_id
 _symmetry_equiv_pos_as_xyz
 1  'x, y, z'
loop_
 _atom_site_type_symbol
 _atom_site_label
 _atom_site_symmetry_multiplicity
 _atom_site_fract_x
 _atom_site_fract_y
 _atom_site_fract_z
 _atom_site_fract_occupancy
 Au  Au1  1  0.41049  0.75000  0.17903  1
 Au  Au2  1  0.58951  0.25000  0.82097  1
 Sm  Sm1  1  0.13728  0.75000  0.72543  1
 Sm  Sm2  1  0.86272  0.25000  0.27457  1
