CIF file written using JARVIS-Tools package.
data_LiHSeO3
_symmetry_space_group_name_H-M  'P2_12_12_1'
_cell_length_a       4.95283
_cell_length_b       5.29584
_cell_length_c       11.1789
_cell_angle_alpha    90
_cell_angle_beta     90
_cell_angle_gamma    90

_symmetry_Int_Tables_number  19
_chemical_formula_structural  LiHSeO3
_chemical_formula_sum  Li4H4Se4O2
_cell_volume  293.21664859729964
_cell_formula_units_Z  4
loop_
  _symmetry_equiv_pos_site_id
 _symmetry_equiv_pos_as_xyz
 1  'x, y, z'
loop_
 _atom_site_type_symbol
 _atom_site_label
 _atom_site_symmetry_multiplicity
 _atom_site_fract_x
 _atom_site_fract_y
 _atom_site_fract_z
 _atom_site_fract_occupancy
 H  H1  1  0.48628  0.93448  0.07952  1
 H  H2  1  0.98628  0.56552  0.92048  1
 H  H3  1  0.51372  0.43448  0.42048  1
 H  H4  1  0.01372  0.06552  0.57952  1
 Li  Li1  1  0.49078  0.93980  0.66938  1
 Li  Li2  1  0.99078  0.56020  0.33062  1
 Li  Li3  1  0.50922  0.43980  0.83062  1
 Li  Li4  1  0.00922  0.06020  0.16938  1
 O  O1  1  0.73895  0.94557  0.53583  1
 O  O2  1  0.31728  0.84772  0.11367  1
 O  O3  1  0.81728  0.65228  0.88633  1
 O  O4  1  0.68272  0.34772  0.38633  1
 O  O5  1  0.18272  0.15228  0.61367  1
 O  O6  1  0.15364  0.39925  0.19583  1
 O  O7  1  0.65364  0.10075  0.80417  1
 O  O8  1  0.76105  0.05443  0.03583  1
 O  O9  1  0.26105  0.44557  0.96417  1
 O  O10  1  0.84636  0.89925  0.30417  1
 O  O11  1  0.23895  0.55443  0.46417  1
 O  O12  1  0.34636  0.60075  0.69583  1
 Se  Se1  1  0.39310  0.50771  0.10152  1
 Se  Se2  1  0.10690  0.49229  0.60152  1
 Se  Se3  1  0.60690  0.00771  0.39848  1
 Se  Se4  1  0.89310  0.99229  0.89848  1
