CIF file written using JARVIS-Tools package.
data_PbC2S2N2
_symmetry_space_group_name_H-M  'C2/c'
_cell_length_a       5.90355
_cell_length_b       5.90356
_cell_length_c       8.13792
_cell_angle_alpha    88.6311
_cell_angle_beta     88.6311
_cell_angle_gamma    67.5518

_symmetry_Int_Tables_number  15
_chemical_formula_structural  PbC2S2N2
_chemical_formula_sum  Pb2C4S4N4
_cell_volume  262.0232279457651
_cell_formula_units_Z  2
loop_
  _symmetry_equiv_pos_site_id
 _symmetry_equiv_pos_as_xyz
 1  'x, y, z'
loop_
 _atom_site_type_symbol
 _atom_site_label
 _atom_site_symmetry_multiplicity
 _atom_site_fract_x
 _atom_site_fract_y
 _atom_site_fract_z
 _atom_site_fract_occupancy
 C  C1  1  0.75289  0.48770  0.60182  1
 C  C2  1  0.24711  0.51230  0.39818  1
 C  C3  1  0.48770  0.75289  0.10182  1
 C  C4  1  0.51230  0.24711  0.89818  1
 N  N1  1  0.28178  0.83483  0.05619  1
 N  N2  1  0.71822  0.16517  0.94381  1
 N  N3  1  0.83483  0.28178  0.55619  1
 N  N4  1  0.16517  0.71822  0.44381  1
 Pb  Pb1  1  0.90315  0.09685  0.25000  1
 Pb  Pb2  1  0.09685  0.90315  0.75000  1
 S  S1  1  0.64591  0.76769  0.66571  1
 S  S2  1  0.76769  0.64591  0.16571  1
 S  S3  1  0.23231  0.35409  0.83429  1
 S  S4  1  0.35409  0.23231  0.33429  1
