CIF file written using JARVIS-Tools package.
data_ZrP2H2O6
_symmetry_space_group_name_H-M  'P-3m1'
_cell_length_a       5.50316
_cell_length_b       5.50316
_cell_length_c       5.33393
_cell_angle_alpha    90
_cell_angle_beta     90
_cell_angle_gamma    120

_symmetry_Int_Tables_number  164
_chemical_formula_structural  ZrP2H2O6
_chemical_formula_sum  ZrP2H2O6
_cell_volume  139.8951244841204
_cell_formula_units_Z  1
loop_
  _symmetry_equiv_pos_site_id
 _symmetry_equiv_pos_as_xyz
 1  'x, y, z'
loop_
 _atom_site_type_symbol
 _atom_site_label
 _atom_site_symmetry_multiplicity
 _atom_site_fract_x
 _atom_site_fract_y
 _atom_site_fract_z
 _atom_site_fract_occupancy
 H  H1  1  0.33333  0.66667  0.57040  1
 H  H2  1  0.66667  0.33333  0.42960  1
 O  O1  1  0.17969  0.82031  0.22264  1
 O  O2  1  0.35938  0.17969  0.77736  1
 O  O3  1  0.82031  0.64062  0.77736  1
 O  O4  1  0.82031  0.17969  0.77736  1
 O  O5  1  0.64062  0.82031  0.22264  1
 O  O6  1  0.17969  0.35938  0.22264  1
 P  P1  1  0.33333  0.66667  0.30729  1
 P  P2  1  0.66667  0.33333  0.69271  1
 Zr  Zr1  1  0.00000  0.00000  0.00000  1
