CIF file written using JARVIS-Tools package.
data_GaHO2
_symmetry_space_group_name_H-M  'Pnma'
_cell_length_a       13.7744
_cell_length_b       3.03613
_cell_length_c       3.83174
_cell_angle_alpha    90
_cell_angle_beta     90
_cell_angle_gamma    90

_symmetry_Int_Tables_number  62
_chemical_formula_structural  GaHO2
_chemical_formula_sum  Ga4H4O8
_cell_volume  160.24697071065543
_cell_formula_units_Z  4
loop_
  _symmetry_equiv_pos_site_id
 _symmetry_equiv_pos_as_xyz
 1  'x, y, z'
loop_
 _atom_site_type_symbol
 _atom_site_label
 _atom_site_symmetry_multiplicity
 _atom_site_fract_x
 _atom_site_fract_y
 _atom_site_fract_z
 _atom_site_fract_occupancy
 Ga  Ga1  1  0.18350  0.75000  0.40527  1
 Ga  Ga2  1  0.31650  0.25000  0.90527  1
 Ga  Ga3  1  0.68350  0.75000  0.09473  1
 Ga  Ga4  1  0.81650  0.25000  0.59473  1
 H  H1  1  0.05084  0.25000  0.62146  1
 H  H2  1  0.44916  0.75000  0.12146  1
 H  H3  1  0.55084  0.25000  0.87854  1
 H  H4  1  0.94916  0.75000  0.37854  1
 O  O1  1  0.08907  0.25000  0.40515  1
 O  O2  1  0.28648  0.25000  0.40756  1
 O  O3  1  0.21352  0.75000  0.90756  1
 O  O4  1  0.41093  0.75000  0.90515  1
 O  O5  1  0.58907  0.25000  0.09485  1
 O  O6  1  0.78648  0.25000  0.09244  1
 O  O7  1  0.71352  0.75000  0.59244  1
 O  O8  1  0.91093  0.75000  0.59485  1
