CIF file written using JARVIS-Tools package.
data_CdAgO2
_symmetry_space_group_name_H-M  'C2/m'
_cell_length_a       3.41295
_cell_length_b       5.73778
_cell_length_c       5.73778
_cell_angle_alpha    107.706
_cell_angle_beta     91.0862
_cell_angle_gamma    91.0863

_symmetry_Int_Tables_number  12
_chemical_formula_structural  CdAgO2
_chemical_formula_sum  Cd2Ag2O4
_cell_volume  106.98370996184275
_cell_formula_units_Z  2
loop_
  _symmetry_equiv_pos_site_id
 _symmetry_equiv_pos_as_xyz
 1  'x, y, z'
loop_
 _atom_site_type_symbol
 _atom_site_label
 _atom_site_symmetry_multiplicity
 _atom_site_fract_x
 _atom_site_fract_y
 _atom_site_fract_z
 _atom_site_fract_occupancy
 Ag  Ag1  1  0.00000  0.00000  0.00000  1
 Ag  Ag2  1  -0.00000  0.50000  0.50000  1
 Cd  Cd1  1  0.50000  -0.00000  0.50000  1
 Cd  Cd2  1  0.50000  0.50000  -0.00000  1
 O  O1  1  0.00000  0.22664  0.77336  1
 O  O2  1  0.63293  0.74849  0.74849  1
 O  O3  1  -0.00000  0.77336  0.22664  1
 O  O4  1  0.36707  0.25151  0.25151  1
