CIF file written using JARVIS-Tools package.
data_Ca2AlFeO5
_symmetry_space_group_name_H-M  'Ima2'
_cell_length_a       5.22624
_cell_length_b       5.50925
_cell_length_c       8.37596
_cell_angle_alpha    109.201
_cell_angle_beta     108.178
_cell_angle_gamma    90.0002

_symmetry_Int_Tables_number  46
_chemical_formula_structural  Ca2AlFeO5
_chemical_formula_sum  Ca4Al2Fe2O0
_cell_volume  214.96523488599314
_cell_formula_units_Z  2
loop_
  _symmetry_equiv_pos_site_id
 _symmetry_equiv_pos_as_xyz
 1  'x, y, z'
loop_
 _atom_site_type_symbol
 _atom_site_label
 _atom_site_symmetry_multiplicity
 _atom_site_fract_x
 _atom_site_fract_y
 _atom_site_fract_z
 _atom_site_fract_occupancy
 Al  Al1  1  0.21077  0.17687  0.50004  1
 Al  Al2  1  0.71077  0.82317  0.50004  1
 Ca  Ca1  1  0.10515  0.58032  0.22038  1
 Ca  Ca2  1  0.38484  0.85997  0.77970  1
 Ca  Ca3  1  0.88484  0.41972  0.77970  1
 Ca  Ca4  1  0.60515  0.14006  0.22038  1
 Fe  Fe1  1  0.50485  0.50002  0.00004  1
 Fe  Fe2  1  0.00485  0.00002  0.00004  1
 O  O1  1  0.26447  0.75825  0.02288  1
 O  O2  1  0.36999  0.88574  0.50004  1
 O  O3  1  0.68218  0.58023  0.29515  1
 O  O4  1  0.86998  0.11429  0.50004  1
 O  O5  1  0.76447  0.76463  0.02288  1
 O  O6  1  0.88705  0.78513  0.70493  1
 O  O7  1  0.74174  0.23552  0.97720  1
 O  O8  1  0.38705  0.41980  0.70493  1
 O  O9  1  0.18218  0.21492  0.29515  1
 O  O10  1  0.24174  0.24168  0.97720  1
