CIF file written using JARVIS-Tools package.
data_K2O
_symmetry_space_group_name_H-M  'P-62m'
_cell_length_a       4.18993
_cell_length_b       6.98283
_cell_length_c       6.9829
_cell_angle_alpha    120
_cell_angle_beta     89.9998
_cell_angle_gamma    90

_symmetry_Int_Tables_number  189
_chemical_formula_structural  K2O
_chemical_formula_sum  K6O3
_cell_volume  176.9315447994591
_cell_formula_units_Z  3
loop_
  _symmetry_equiv_pos_site_id
 _symmetry_equiv_pos_as_xyz
 1  'x, y, z'
loop_
 _atom_site_type_symbol
 _atom_site_label
 _atom_site_symmetry_multiplicity
 _atom_site_fract_x
 _atom_site_fract_y
 _atom_site_fract_z
 _atom_site_fract_occupancy
 K  K1  1  0.06727  0.92262  0.25744  1
 K  K2  1  0.56719  0.33207  0.40536  1
 K  K3  1  0.56721  0.07070  0.66696  1
 K  K4  1  0.06722  0.74159  0.66680  1
 K  K5  1  0.56719  0.59368  0.92833  1
 K  K6  1  0.06721  0.33224  0.07642  1
 O  O1  1  0.56776  0.66549  0.33355  1
 O  O2  1  0.06717  0.33216  0.66688  1
 O  O3  1  0.56693  0.99881  0.00022  1
