CIF file written using JARVIS-Tools package.
data_Li3CoNi3O8
_symmetry_space_group_name_H-M  'R-3m'
_cell_length_a       5.75592
_cell_length_b       5.7132
_cell_length_c       5.7132
_cell_angle_alpha    60
_cell_angle_beta     60.2452
_cell_angle_gamma    90

_symmetry_Int_Tables_number  166
_chemical_formula_structural  Li3CoNi3O8
_chemical_formula_sum  Li3CoNi3O8
_cell_volume  133.33983958126495
_cell_formula_units_Z  1
loop_
  _symmetry_equiv_pos_site_id
 _symmetry_equiv_pos_as_xyz
 1  'x, y, z'
loop_
 _atom_site_type_symbol
 _atom_site_label
 _atom_site_symmetry_multiplicity
 _atom_site_fract_x
 _atom_site_fract_y
 _atom_site_fract_z
 _atom_site_fract_occupancy
 Co  Co1  1  0.00000  0.00000  0.00000  1
 Li  Li1  1  0.50000  0.00000  -0.00000  1
 Li  Li2  1  0.50000  -0.00000  0.50000  1
 Li  Li3  1  0.50000  0.50000  0.50000  1
 Ni  Ni1  1  -0.00000  0.00000  0.50000  1
 Ni  Ni2  1  -0.00000  0.50000  -0.00000  1
 Ni  Ni3  1  -0.00000  0.50000  0.50000  1
 O  O1  1  0.21385  0.23243  0.01859  1
 O  O2  1  0.21385  0.23243  0.53513  1
 O  O3  1  0.21385  0.74898  0.01859  1
 O  O4  1  0.21918  0.73973  0.52055  1
 O  O5  1  0.78082  0.26027  0.47945  1
 O  O6  1  0.78615  0.25102  0.98141  1
 O  O7  1  0.78615  0.76757  0.46487  1
 O  O8  1  0.78615  0.76757  0.98141  1
