CIF file written using JARVIS-Tools package.
data_LiNiSnO4
_symmetry_space_group_name_H-M  'C2/c'
_cell_length_a       6.05891
_cell_length_b       6.13204
_cell_length_c       6.0589
_cell_angle_alpha    58.141
_cell_angle_beta     96.1138
_cell_angle_gamma    121.859

_symmetry_Int_Tables_number  15
_chemical_formula_structural  LiNiSnO4
_chemical_formula_sum  Li2Ni2Sn2O8
_cell_volume  157.70386144261963
_cell_formula_units_Z  2
loop_
  _symmetry_equiv_pos_site_id
 _symmetry_equiv_pos_as_xyz
 1  'x, y, z'
loop_
 _atom_site_type_symbol
 _atom_site_label
 _atom_site_symmetry_multiplicity
 _atom_site_fract_x
 _atom_site_fract_y
 _atom_site_fract_z
 _atom_site_fract_occupancy
 Li  Li1  1  0.00000  0.50000  0.00000  1
 Li  Li2  1  0.50000  0.00000  0.50000  1
 Ni  Ni1  1  0.00000  0.00000  0.50000  1
 Ni  Ni2  1  0.00000  0.50000  0.50000  1
 O  O1  1  0.22943  0.00766  0.74578  1
 O  O2  1  0.20436  0.44152  0.29217  1
 O  O3  1  0.24578  0.49234  0.72943  1
 O  O4  1  0.20783  0.94152  0.29564  1
 O  O5  1  0.79217  0.05848  0.70436  1
 O  O6  1  0.75422  0.50766  0.27057  1
 O  O7  1  0.79564  0.55848  0.70783  1
 O  O8  1  0.77057  0.99234  0.25422  1
 Sn  Sn1  1  0.00000  0.00000  0.00000  1
 Sn  Sn2  1  0.50000  0.50000  0.50000  1
