CIF file written using JARVIS-Tools package.
data_ZnSiNiO5
_symmetry_space_group_name_H-M  'P-1'
_cell_length_a       5.07205
_cell_length_b       5.31738
_cell_length_c       6.82862
_cell_angle_alpha    105.473
_cell_angle_beta     102.653
_cell_angle_gamma    107.424

_symmetry_Int_Tables_number  2
_chemical_formula_structural  ZnSiNiO5
_chemical_formula_sum  Zn2Si2Ni2O0
_cell_volume  160.14945644397204
_cell_formula_units_Z  2
loop_
  _symmetry_equiv_pos_site_id
 _symmetry_equiv_pos_as_xyz
 1  'x, y, z'
loop_
 _atom_site_type_symbol
 _atom_site_label
 _atom_site_symmetry_multiplicity
 _atom_site_fract_x
 _atom_site_fract_y
 _atom_site_fract_z
 _atom_site_fract_occupancy
 Ni  Ni1  1  0.00425  0.49492  0.51455  1
 Ni  Ni2  1  0.00425  0.49492  0.01455  1
 O  O1  1  0.71526  0.64157  0.92104  1
 O  O2  1  0.97264  0.84085  0.65761  1
 O  O3  1  0.29323  0.34828  0.10807  1
 O  O4  1  0.03586  0.14899  0.37150  1
 O  O5  1  0.61635  0.29510  0.48674  1
 O  O6  1  0.30511  0.86120  0.14882  1
 O  O7  1  0.39215  0.69476  0.54237  1
 O  O8  1  0.70339  0.12864  0.88029  1
 O  O9  1  0.87141  0.53514  0.25349  1
 O  O10  1  0.13710  0.45471  0.77562  1
 Si  Si1  1  0.69110  0.81074  0.74849  1
 Si  Si2  1  0.31739  0.17910  0.28062  1
 Zn  Zn1  1  0.34404  0.19752  0.78946  1
 Zn  Zn2  1  0.66444  0.79230  0.23964  1
