CIF file written using JARVIS-Tools package.
data_LiInHg2
_symmetry_space_group_name_H-M  'I4/mmm'
_cell_length_a       12.3858
_cell_length_b       8.59445
_cell_length_c       8.59568
_cell_angle_alpha    32.883
_cell_angle_beta     19.4416
_cell_angle_gamma    19.442

_symmetry_Int_Tables_number  139
_chemical_formula_structural  LiInHg2
_chemical_formula_sum  LiInHg2
_cell_volume  90.72358293918754
_cell_formula_units_Z  1
loop_
  _symmetry_equiv_pos_site_id
 _symmetry_equiv_pos_as_xyz
 1  'x, y, z'
loop_
 _atom_site_type_symbol
 _atom_site_label
 _atom_site_symmetry_multiplicity
 _atom_site_fract_x
 _atom_site_fract_y
 _atom_site_fract_z
 _atom_site_fract_occupancy
 Hg  Hg1  1  0.74999  0.00003  0.00002  1
 Hg  Hg2  1  0.25001  0.99997  -0.00002  1
 In  In1  1  0.50000  0.00000  0.00000  1
 Li  Li1  1  0.00000  0.00000  0.00000  1
