CIF file written using JARVIS-Tools package.
data_TcBr3
_symmetry_space_group_name_H-M  'Pmmn'
_cell_length_a       11.284
_cell_length_b       5.92341
_cell_length_c       6.53166
_cell_angle_alpha    90
_cell_angle_beta     90
_cell_angle_gamma    90

_symmetry_Int_Tables_number  59
_chemical_formula_structural  TcBr3
_chemical_formula_sum  Tc4Br2
_cell_volume  436.57265633420207
_cell_formula_units_Z  4
loop_
  _symmetry_equiv_pos_site_id
 _symmetry_equiv_pos_as_xyz
 1  'x, y, z'
loop_
 _atom_site_type_symbol
 _atom_site_label
 _atom_site_symmetry_multiplicity
 _atom_site_fract_x
 _atom_site_fract_y
 _atom_site_fract_z
 _atom_site_fract_occupancy
 Br  Br1  1  0.75000  0.75000  0.09369  1
 Br  Br2  1  0.09950  0.75000  0.08881  1
 Br  Br3  1  0.40050  0.75000  0.08881  1
 Br  Br4  1  0.08253  0.25000  0.40371  1
 Br  Br5  1  0.41747  0.25000  0.40371  1
 Br  Br6  1  0.75000  0.25000  0.46025  1
 Br  Br7  1  0.25000  0.75000  0.53975  1
 Br  Br8  1  0.58253  0.75000  0.59629  1
 Br  Br9  1  0.91747  0.75000  0.59629  1
 Br  Br10  1  0.59950  0.25000  0.91119  1
 Br  Br11  1  0.90050  0.25000  0.91119  1
 Br  Br12  1  0.25000  0.25000  0.90631  1
 Tc  Tc1  1  0.25000  0.03019  0.23894  1
 Tc  Tc2  1  0.25000  0.46981  0.23894  1
 Tc  Tc3  1  0.75000  0.53019  0.76106  1
 Tc  Tc4  1  0.75000  0.96981  0.76106  1
