CIF file written using JARVIS-Tools package.
data_LiFe2O3
_symmetry_space_group_name_H-M  'P-3m1'
_cell_length_a       2.99032
_cell_length_b       2.99014
_cell_length_c       7.33207
_cell_angle_alpha    89.9983
_cell_angle_beta     90
_cell_angle_gamma    120.002

_symmetry_Int_Tables_number  164
_chemical_formula_structural  LiFe2O3
_chemical_formula_sum  LiFe2O3
_cell_volume  56.7751251779689
_cell_formula_units_Z  1
loop_
  _symmetry_equiv_pos_site_id
 _symmetry_equiv_pos_as_xyz
 1  'x, y, z'
loop_
 _atom_site_type_symbol
 _atom_site_label
 _atom_site_symmetry_multiplicity
 _atom_site_fract_x
 _atom_site_fract_y
 _atom_site_fract_z
 _atom_site_fract_occupancy
 Fe  Fe1  1  0.33333  0.66670  0.17760  1
 Fe  Fe2  1  0.66663  0.33330  0.82240  1
 Li  Li1  1  0.99999  -0.00000  0.50000  1
 O  O1  1  0.33334  0.66666  0.67571  1
 O  O2  1  -0.00000  0.00000  0.00000  1
 O  O3  1  0.66669  0.33334  0.32429  1
