CIF file written using JARVIS-Tools package.
data_Na3CuCSO7
_symmetry_space_group_name_H-M  'P2_1/m'
_cell_length_a       5.14111
_cell_length_b       6.97026
_cell_length_c       8.95419
_cell_angle_alpha    90
_cell_angle_beta     88.3084
_cell_angle_gamma    90

_symmetry_Int_Tables_number  11
_chemical_formula_structural  Na3CuCSO7
_chemical_formula_sum  Na6Cu2C2S2O4
_cell_volume  320.73207805032285
_cell_formula_units_Z  2
loop_
  _symmetry_equiv_pos_site_id
 _symmetry_equiv_pos_as_xyz
 1  'x, y, z'
loop_
 _atom_site_type_symbol
 _atom_site_label
 _atom_site_symmetry_multiplicity
 _atom_site_fract_x
 _atom_site_fract_y
 _atom_site_fract_z
 _atom_site_fract_occupancy
 C  C1  1  0.76672  0.75000  0.93912  1
 C  C2  1  0.23328  0.25000  0.06088  1
 Cu  Cu1  1  0.69241  0.75000  0.63339  1
 Cu  Cu2  1  0.30759  0.25000  0.36661  1
 Na  Na1  1  0.73162  0.25000  0.92224  1
 Na  Na2  1  0.26838  0.75000  0.07776  1
 Na  Na3  1  0.23007  0.50968  0.74065  1
 Na  Na4  1  0.76993  0.49032  0.25935  1
 Na  Na5  1  0.76993  0.00968  0.25935  1
 Na  Na6  1  0.23007  0.99032  0.74065  1
 O  O1  1  0.72340  0.75000  0.08333  1
 O  O2  1  0.00064  0.75000  0.88399  1
 O  O3  1  -0.00064  0.25000  0.11601  1
 O  O4  1  0.43220  0.25000  0.14918  1
 O  O5  1  0.21001  0.92163  0.31501  1
 O  O6  1  0.21001  0.57837  0.31501  1
 O  O7  1  0.84843  0.25000  0.44690  1
 O  O8  1  0.56780  0.75000  0.85082  1
 O  O9  1  0.42668  0.25000  0.57840  1
 O  O10  1  0.78999  0.42163  0.68499  1
 O  O11  1  0.78999  0.07837  0.68499  1
 O  O12  1  0.57332  0.75000  0.42160  1
 O  O13  1  0.15157  0.75000  0.55310  1
 O  O14  1  0.27660  0.25000  0.91667  1
 S  S1  1  0.71945  0.25000  0.59646  1
 S  S2  1  0.28055  0.75000  0.40354  1
