CIF file written using JARVIS-Tools package.
data_Na3CrCl6
_symmetry_space_group_name_H-M  'P-31c'
_cell_length_a       6.78168
_cell_length_b       6.78168
_cell_length_c       11.97
_cell_angle_alpha    90
_cell_angle_beta     90
_cell_angle_gamma    120

_symmetry_Int_Tables_number  163
_chemical_formula_structural  Na3CrCl6
_chemical_formula_sum  Na6Cr2Cl2
_cell_volume  476.760155954888
_cell_formula_units_Z  2
loop_
  _symmetry_equiv_pos_site_id
 _symmetry_equiv_pos_as_xyz
 1  'x, y, z'
loop_
 _atom_site_type_symbol
 _atom_site_label
 _atom_site_symmetry_multiplicity
 _atom_site_fract_x
 _atom_site_fract_y
 _atom_site_fract_z
 _atom_site_fract_occupancy
 Cl  Cl1  1  0.94394  0.62236  0.63382  1
 Cl  Cl2  1  0.05606  0.67843  0.13382  1
 Cl  Cl3  1  0.37764  0.32157  0.63382  1
 Cl  Cl4  1  0.32157  0.94394  0.36618  1
 Cl  Cl5  1  0.62236  0.67843  0.36618  1
 Cl  Cl6  1  0.32157  0.37764  0.13382  1
 Cl  Cl7  1  0.05606  0.37764  0.36618  1
 Cl  Cl8  1  0.67843  0.62236  0.86618  1
 Cl  Cl9  1  0.94394  0.32157  0.86618  1
 Cl  Cl10  1  0.62236  0.94394  0.13382  1
 Cl  Cl11  1  0.67843  0.05606  0.63382  1
 Cl  Cl12  1  0.37764  0.05606  0.86618  1
 Cr  Cr1  1  0.33333  0.66667  0.25000  1
 Cr  Cr2  1  0.66667  0.33333  0.75000  1
 Na  Na1  1  0.66667  0.33333  0.04277  1
 Na  Na2  1  0.66667  0.33333  0.45723  1
 Na  Na3  1  0.33333  0.66667  0.95723  1
 Na  Na4  1  0.33333  0.66667  0.54277  1
 Na  Na5  1  0.00000  0.00000  0.75000  1
 Na  Na6  1  0.00000  0.00000  0.25000  1
