CIF file written using JARVIS-Tools package.
data_Li3Cr3SiO8
_symmetry_space_group_name_H-M  'P2/m'
_cell_length_a       4.94526
_cell_length_b       5.76548
_cell_length_c       5.05878
_cell_angle_alpha    90
_cell_angle_beta     108.371
_cell_angle_gamma    90

_symmetry_Int_Tables_number  10
_chemical_formula_structural  Li3Cr3SiO8
_chemical_formula_sum  Li3Cr3SiO8
_cell_volume  136.88425839014138
_cell_formula_units_Z  1
loop_
  _symmetry_equiv_pos_site_id
 _symmetry_equiv_pos_as_xyz
 1  'x, y, z'
loop_
 _atom_site_type_symbol
 _atom_site_label
 _atom_site_symmetry_multiplicity
 _atom_site_fract_x
 _atom_site_fract_y
 _atom_site_fract_z
 _atom_site_fract_occupancy
 Cr  Cr1  1  0.00000  0.75186  0.50000  1
 Cr  Cr2  1  0.00000  0.24814  0.50000  1
 Cr  Cr3  1  0.50000  0.50000  0.50000  1
 Li  Li1  1  0.00000  0.50000  0.00000  1
 Li  Li2  1  0.50000  0.76404  -0.00000  1
 Li  Li3  1  0.50000  0.23596  -0.00000  1
 O  O1  1  0.73282  0.00000  0.29471  1
 O  O2  1  0.71921  0.76569  0.71140  1
 O  O3  1  0.76570  0.50000  0.27077  1
 O  O4  1  0.28079  0.76569  0.28860  1
 O  O5  1  0.71921  0.23431  0.71140  1
 O  O6  1  0.26718  0.00000  0.70529  1
 O  O7  1  0.23430  0.50000  0.72923  1
 O  O8  1  0.28079  0.23431  0.28860  1
 Si  Si1  1  0.50000  0.00000  0.50000  1
