CIF file written using JARVIS-Tools package.
data_Li3BN2
_symmetry_space_group_name_H-M  'P2_1/c'
_cell_length_a       5.11529
_cell_length_b       7.0506
_cell_length_c       6.71351
_cell_angle_alpha    90
_cell_angle_beta     112.992
_cell_angle_gamma    90

_symmetry_Int_Tables_number  14
_chemical_formula_structural  Li3BN2
_chemical_formula_sum  Li2B4N8
_cell_volume  222.89412170853223
_cell_formula_units_Z  4
loop_
  _symmetry_equiv_pos_site_id
 _symmetry_equiv_pos_as_xyz
 1  'x, y, z'
loop_
 _atom_site_type_symbol
 _atom_site_label
 _atom_site_symmetry_multiplicity
 _atom_site_fract_x
 _atom_site_fract_y
 _atom_site_fract_z
 _atom_site_fract_occupancy
 B  B1  1  0.78525  0.18038  0.32386  1
 B  B2  1  0.21475  0.68038  0.17614  1
 B  B3  1  0.21475  0.81962  0.67614  1
 B  B4  1  0.78525  0.31962  0.82386  1
 Li  Li1  1  0.24989  0.51550  0.49908  1
 Li  Li2  1  0.75011  0.01550  0.00092  1
 Li  Li3  1  0.75011  0.48450  0.50092  1
 Li  Li4  1  0.24989  0.98450  0.99908  1
 Li  Li5  1  0.74810  0.48797  0.12484  1
 Li  Li6  1  0.74234  0.70773  0.81341  1
 Li  Li7  1  0.74810  0.01203  0.62484  1
 Li  Li8  1  0.25190  0.51203  0.87516  1
 Li  Li9  1  0.74234  0.79227  0.31341  1
 Li  Li10  1  0.25766  0.29227  0.18659  1
 Li  Li11  1  0.25766  0.20773  0.68659  1
 Li  Li12  1  0.25190  0.98797  0.37516  1
 N  N1  1  0.00666  0.29697  0.36539  1
 N  N2  1  0.00666  0.20303  0.86539  1
 N  N3  1  0.43484  0.56150  0.21819  1
 N  N4  1  0.56516  0.06150  0.28181  1
 N  N5  1  0.56516  0.43850  0.78181  1
 N  N6  1  0.43484  0.93850  0.71819  1
 N  N7  1  0.99334  0.79697  0.13461  1
 N  N8  1  0.99334  0.70303  0.63461  1
