CIF file written using JARVIS-Tools package.
data_LiMnNiO4
_symmetry_space_group_name_H-M  'Imma'
_cell_length_a       5.76687
_cell_length_b       5.73111
_cell_length_c       5.73111
_cell_angle_alpha    59.1142
_cell_angle_beta     59.7933
_cell_angle_gamma    59.7933

_symmetry_Int_Tables_number  74
_chemical_formula_structural  LiMnNiO4
_chemical_formula_sum  Li2Mn2Ni2O8
_cell_volume  132.60679087105592
_cell_formula_units_Z  2
loop_
  _symmetry_equiv_pos_site_id
 _symmetry_equiv_pos_as_xyz
 1  'x, y, z'
loop_
 _atom_site_type_symbol
 _atom_site_label
 _atom_site_symmetry_multiplicity
 _atom_site_fract_x
 _atom_site_fract_y
 _atom_site_fract_z
 _atom_site_fract_occupancy
 Li  Li1  1  0.12208  0.12792  0.12792  1
 Li  Li2  1  0.87792  0.87208  0.87208  1
 Mn  Mn1  1  0.50000  -0.00000  0.50000  1
 Mn  Mn2  1  0.50000  0.50000  -0.00000  1
 Ni  Ni1  1  -0.00000  0.50000  0.50000  1
 Ni  Ni2  1  0.50000  0.50000  0.50000  1
 O  O1  1  0.26520  0.26303  0.26303  1
 O  O2  1  0.26639  0.25631  0.71091  1
 O  O3  1  0.26639  0.71091  0.25631  1
 O  O4  1  0.70873  0.26303  0.26303  1
 O  O5  1  0.29127  0.73697  0.73697  1
 O  O6  1  0.73361  0.74369  0.28909  1
 O  O7  1  0.73361  0.28909  0.74369  1
 O  O8  1  0.73480  0.73697  0.73697  1
