CIF file written using JARVIS-Tools package.
data_LiZnFe4O8
_symmetry_space_group_name_H-M  'R3m'
_cell_length_a       5.62771
_cell_length_b       5.62771
_cell_length_c       5.87806
_cell_angle_alpha    61.3993
_cell_angle_beta     61.3993
_cell_angle_gamma    60

_symmetry_Int_Tables_number  160
_chemical_formula_structural  LiZnFe4O8
_chemical_formula_sum  LiZnFe4O8
_cell_volume  134.3536111340657
_cell_formula_units_Z  1
loop_
  _symmetry_equiv_pos_site_id
 _symmetry_equiv_pos_as_xyz
 1  'x, y, z'
loop_
 _atom_site_type_symbol
 _atom_site_label
 _atom_site_symmetry_multiplicity
 _atom_site_fract_x
 _atom_site_fract_y
 _atom_site_fract_z
 _atom_site_fract_occupancy
 Fe  Fe1  1  0.24798  0.24798  0.25605  1
 Fe  Fe2  1  0.62129  0.12723  0.63019  1
 Fe  Fe3  1  0.12723  0.62129  0.63019  1
 Fe  Fe4  1  0.62129  0.62129  0.63019  1
 Li  Li1  1  0.00057  0.00057  0.99828  1
 O  O1  1  0.85297  0.37426  0.39852  1
 O  O2  1  0.37426  0.37426  0.39852  1
 O  O3  1  0.37426  0.85297  0.39852  1
 O  O4  1  0.37741  0.37741  0.86778  1
 O  O5  1  0.87913  0.40575  0.83599  1
 O  O6  1  0.85928  0.85928  0.42217  1
 O  O7  1  0.40575  0.87913  0.83599  1
 O  O8  1  0.87913  0.87913  0.83599  1
 Zn  Zn1  1  0.62946  0.62946  0.11162  1
