CIF file written using JARVIS-Tools package.
data_Ga3Co
_symmetry_space_group_name_H-M  'P4_2/mnm'
_cell_length_a       6.25558
_cell_length_b       6.25558
_cell_length_c       6.4915
_cell_angle_alpha    90
_cell_angle_beta     90
_cell_angle_gamma    90

_symmetry_Int_Tables_number  136
_chemical_formula_structural  Ga3Co
_chemical_formula_sum  Ga2Co4
_cell_volume  254.0270744612751
_cell_formula_units_Z  4
loop_
  _symmetry_equiv_pos_site_id
 _symmetry_equiv_pos_as_xyz
 1  'x, y, z'
loop_
 _atom_site_type_symbol
 _atom_site_label
 _atom_site_symmetry_multiplicity
 _atom_site_fract_x
 _atom_site_fract_y
 _atom_site_fract_z
 _atom_site_fract_occupancy
 Co  Co1  1  0.84299  0.15701  0.50000  1
 Co  Co2  1  0.65701  0.65701  0.00000  1
 Co  Co3  1  0.34299  0.34299  0.00000  1
 Co  Co4  1  0.15701  0.84299  0.50000  1
 Ga  Ga1  1  0.50000  0.00000  0.50000  1
 Ga  Ga2  1  0.50000  0.00000  0.00000  1
 Ga  Ga3  1  0.00000  0.50000  0.50000  1
 Ga  Ga4  1  0.00000  0.50000  0.00000  1
 Ga  Ga5  1  0.65087  0.34913  0.24325  1
 Ga  Ga6  1  0.84913  0.84913  0.25675  1
 Ga  Ga7  1  0.15087  0.15087  0.25675  1
 Ga  Ga8  1  0.34913  0.65087  0.24325  1
 Ga  Ga9  1  0.34913  0.65087  0.75675  1
 Ga  Ga10  1  0.65087  0.34913  0.75675  1
 Ga  Ga11  1  0.84913  0.84913  0.74325  1
 Ga  Ga12  1  0.15087  0.15087  0.74325  1
