CIF file written using JARVIS-Tools package.
data_Mn4O7F
_symmetry_space_group_name_H-M  'Cc'
_cell_length_a       6.46163
_cell_length_b       6.46163
_cell_length_c       6.86043
_cell_angle_alpha    114.275
_cell_angle_beta     114.271
_cell_angle_gamma    96.4449

_symmetry_Int_Tables_number  9
_chemical_formula_structural  Mn4O7F
_chemical_formula_sum  Mn8O4F2
_cell_volume  223.99038368460626
_cell_formula_units_Z  2
loop_
  _symmetry_equiv_pos_site_id
 _symmetry_equiv_pos_as_xyz
 1  'x, y, z'
loop_
 _atom_site_type_symbol
 _atom_site_label
 _atom_site_symmetry_multiplicity
 _atom_site_fract_x
 _atom_site_fract_y
 _atom_site_fract_z
 _atom_site_fract_occupancy
 F  F1  1  0.03676  0.60172  0.38330  1
 F  F2  1  0.35173  0.28676  0.88330  1
 Mn  Mn1  1  0.29775  0.57359  0.85414  1
 Mn  Mn2  1  0.19811  0.94760  0.14848  1
 Mn  Mn3  1  0.69760  0.44811  0.64848  1
 Mn  Mn4  1  0.69532  0.44608  0.13935  1
 Mn  Mn5  1  0.19608  0.94532  0.63935  1
 Mn  Mn6  1  0.32359  0.54775  0.35413  1
 Mn  Mn7  1  0.80377  0.04950  0.85606  1
 Mn  Mn8  1  0.79950  0.05377  0.35606  1
 O  O1  1  0.46835  0.88150  0.61590  1
 O  O2  1  0.09778  0.01416  0.38131  1
 O  O3  1  0.60638  0.51889  0.38371  1
 O  O4  1  0.73102  0.15285  0.11733  1
 O  O5  1  0.76416  0.34778  0.88130  1
 O  O6  1  0.52822  0.11770  0.38275  1
 O  O7  1  0.96464  0.38890  0.61844  1
 O  O8  1  0.86770  0.77822  0.88276  1
 O  O9  1  0.22905  0.65037  0.11925  1
 O  O10  1  0.26890  0.85638  0.88371  1
 O  O11  1  0.40037  0.47905  0.61924  1
 O  O12  1  0.90285  0.98102  0.61733  1
 O  O13  1  0.13890  0.21463  0.11844  1
 O  O14  1  0.63150  0.71834  0.11591  1
