CIF file written using JARVIS-Tools package.
data_Li2MnF5
_symmetry_space_group_name_H-M  'Cmcm'
_cell_length_a       4.08932
_cell_length_b       5.27826
_cell_length_c       9.55729
_cell_angle_alpha    90
_cell_angle_beta     90
_cell_angle_gamma    67.2088

_symmetry_Int_Tables_number  63
_chemical_formula_structural  Li2MnF5
_chemical_formula_sum  Li4Mn2F0
_cell_volume  190.18294787808665
_cell_formula_units_Z  2
loop_
  _symmetry_equiv_pos_site_id
 _symmetry_equiv_pos_as_xyz
 1  'x, y, z'
loop_
 _atom_site_type_symbol
 _atom_site_label
 _atom_site_symmetry_multiplicity
 _atom_site_fract_x
 _atom_site_fract_y
 _atom_site_fract_z
 _atom_site_fract_occupancy
 F  F1  1  0.06825  0.86350  0.11473  1
 F  F2  1  0.06825  0.86350  0.38527  1
 F  F3  1  0.66726  0.66548  0.89956  1
 F  F4  1  0.66726  0.66548  0.60044  1
 F  F5  1  0.24133  0.51733  0.75000  1
 F  F6  1  0.75867  0.48267  0.25000  1
 F  F7  1  0.33274  0.33452  0.39956  1
 F  F8  1  0.33274  0.33452  0.10044  1
 F  F9  1  0.93175  0.13650  0.61473  1
 F  F10  1  0.93175  0.13650  0.88527  1
 Li  Li1  1  0.12475  0.75049  0.92073  1
 Li  Li2  1  0.12475  0.75049  0.57927  1
 Li  Li3  1  0.87525  0.24951  0.07927  1
 Li  Li4  1  0.87525  0.24951  0.42073  1
 Mn  Mn1  1  0.20499  0.59002  0.25000  1
 Mn  Mn2  1  0.79501  0.40998  0.75000  1
