CIF file written using JARVIS-Tools package.
data_Li2FeSiO4
_symmetry_space_group_name_H-M  'Pmn2_1'
_cell_length_a       4.96507
_cell_length_b       5.3267
_cell_length_c       6.26733
_cell_angle_alpha    90
_cell_angle_beta     90
_cell_angle_gamma    90

_symmetry_Int_Tables_number  31
_chemical_formula_structural  Li2FeSiO4
_chemical_formula_sum  Li4Fe2Si2O8
_cell_volume  165.75485860061292
_cell_formula_units_Z  2
loop_
  _symmetry_equiv_pos_site_id
 _symmetry_equiv_pos_as_xyz
 1  'x, y, z'
loop_
 _atom_site_type_symbol
 _atom_site_label
 _atom_site_symmetry_multiplicity
 _atom_site_fract_x
 _atom_site_fract_y
 _atom_site_fract_z
 _atom_site_fract_occupancy
 Fe  Fe1  1  0.05927  0.17492  0.50000  1
 Fe  Fe2  1  0.55927  0.82508  0.00000  1
 Li  Li1  1  0.05701  0.66730  0.25037  1
 Li  Li2  1  0.55701  0.33270  0.24963  1
 Li  Li3  1  0.55701  0.33270  0.75037  1
 Li  Li4  1  0.05701  0.66730  0.74963  1
 O  O1  1  0.71762  0.17493  0.00000  1
 O  O2  1  0.16104  0.31567  0.21603  1
 O  O3  1  0.21762  0.82507  0.50000  1
 O  O4  1  0.65144  0.12815  0.50000  1
 O  O5  1  0.66104  0.68433  0.71603  1
 O  O6  1  0.66104  0.68433  0.28397  1
 O  O7  1  0.16104  0.31567  0.78397  1
 O  O8  1  0.15144  0.87185  0.00000  1
 Si  Si1  1  0.05057  0.16884  0.00000  1
 Si  Si2  1  0.55057  0.83116  0.50000  1
