CIF file written using JARVIS-Tools package.
data_GaSnRu2
_symmetry_space_group_name_H-M  'Immm'
_cell_length_a       9.91435
_cell_length_b       10.7874
_cell_length_c       10.7874
_cell_angle_alpha    61.5955
_cell_angle_beta     62.643
_cell_angle_gamma    62.6431

_symmetry_Int_Tables_number  71
_chemical_formula_structural  GaSnRu2
_chemical_formula_sum  GaSnRu2
_cell_volume  857.3929105622414
_cell_formula_units_Z  1
loop_
  _symmetry_equiv_pos_site_id
 _symmetry_equiv_pos_as_xyz
 1  'x, y, z'
loop_
 _atom_site_type_symbol
 _atom_site_label
 _atom_site_symmetry_multiplicity
 _atom_site_fract_x
 _atom_site_fract_y
 _atom_site_fract_z
 _atom_site_fract_occupancy
 Ga  Ga1  1  0.00000  0.00000  0.00000  1
 Ru  Ru1  1  0.75404  0.00000  0.00000  1
 Ru  Ru2  1  0.24596  -0.00000  -0.00000  1
 Sn  Sn1  1  0.50000  -0.00000  0.00000  1
