CIF file written using JARVIS-Tools package.
data_LiMnPO4
_symmetry_space_group_name_H-M  'R-3'
_cell_length_a       4.98956
_cell_length_b       8.36265
_cell_length_c       4.98956
_cell_angle_alpha    107.357
_cell_angle_beta     60
_cell_angle_gamma    107.357

_symmetry_Int_Tables_number  148
_chemical_formula_structural  LiMnPO4
_chemical_formula_sum  Li2Mn2P2O8
_cell_volume  169.2663663445458
_cell_formula_units_Z  2
loop_
  _symmetry_equiv_pos_site_id
 _symmetry_equiv_pos_as_xyz
 1  'x, y, z'
loop_
 _atom_site_type_symbol
 _atom_site_label
 _atom_site_symmetry_multiplicity
 _atom_site_fract_x
 _atom_site_fract_y
 _atom_site_fract_z
 _atom_site_fract_occupancy
 Li  Li1  1  0.14171  0.42513  0.14171  1
 Li  Li2  1  0.43380  0.30140  0.43380  1
 Mn  Mn1  1  0.01299  0.03897  0.01299  1
 Mn  Mn2  1  0.56252  0.68755  0.56252  1
 O  O1  1  0.14944  0.53143  0.55758  1
 O  O2  1  0.01792  0.19508  0.75109  1
 O  O3  1  0.42607  0.19508  0.01792  1
 O  O4  1  0.64562  0.93687  0.64562  1
 O  O5  1  0.82441  0.53143  0.14944  1
 O  O6  1  0.55758  0.53143  0.82441  1
 O  O7  1  0.75109  0.19508  0.42607  1
 O  O8  1  0.92988  0.78964  0.92988  1
 P  P1  1  0.86443  0.59329  0.86443  1
 P  P2  1  0.71107  0.13322  0.71107  1
