CIF file written using JARVIS-Tools package.
data_SnBO3
_symmetry_space_group_name_H-M  'Cc'
_cell_length_a       5.14839
_cell_length_b       5.1484
_cell_length_c       12.8768
_cell_angle_alpha    83.1533
_cell_angle_beta     96.8467
_cell_angle_gamma    60.5349

_symmetry_Int_Tables_number  9
_chemical_formula_structural  SnBO3
_chemical_formula_sum  Sn4B4O2
_cell_volume  288.7348541002172
_cell_formula_units_Z  4
loop_
  _symmetry_equiv_pos_site_id
 _symmetry_equiv_pos_as_xyz
 1  'x, y, z'
loop_
 _atom_site_type_symbol
 _atom_site_label
 _atom_site_symmetry_multiplicity
 _atom_site_fract_x
 _atom_site_fract_y
 _atom_site_fract_z
 _atom_site_fract_occupancy
 B  B1  1  0.10610  0.45494  0.87960  1
 B  B2  1  0.56287  0.20484  0.63065  1
 B  B3  1  0.54506  0.89390  0.37960  1
 B  B4  1  0.79516  0.43713  0.13065  1
 O  O1  1  0.51735  0.69640  0.12397  1
 O  O2  1  0.06078  0.44499  0.15217  1
 O  O3  1  0.79405  0.71561  0.46457  1
 O  O4  1  0.02747  0.74637  0.87776  1
 O  O5  1  0.28439  0.20595  0.96457  1
 O  O6  1  0.30360  0.48265  0.62397  1
 O  O7  1  0.25363  0.97253  0.37776  1
 O  O8  1  0.03601  0.34480  0.79179  1
 O  O9  1  0.55501  0.93922  0.65217  1
 O  O10  1  0.65520  0.96399  0.29179  1
 O  O11  1  0.80440  0.17414  0.11359  1
 O  O12  1  0.82586  0.19560  0.61359  1
 Sn  Sn1  1  0.88794  0.54530  0.62775  1
 Sn  Sn2  1  0.37449  0.84716  0.86190  1
 Sn  Sn3  1  0.45470  0.11206  0.12775  1
 Sn  Sn4  1  0.15284  0.62551  0.36190  1
