CIF file written using JARVIS-Tools package.
data_SiNi
_symmetry_space_group_name_H-M  'Pmmn'
_cell_length_a       3.09285
_cell_length_b       3.27593
_cell_length_c       4.71491
_cell_angle_alpha    90
_cell_angle_beta     90
_cell_angle_gamma    90

_symmetry_Int_Tables_number  59
_chemical_formula_structural  SiNi
_chemical_formula_sum  Si2Ni2
_cell_volume  47.77127597193386
_cell_formula_units_Z  2
loop_
  _symmetry_equiv_pos_site_id
 _symmetry_equiv_pos_as_xyz
 1  'x, y, z'
loop_
 _atom_site_type_symbol
 _atom_site_label
 _atom_site_symmetry_multiplicity
 _atom_site_fract_x
 _atom_site_fract_y
 _atom_site_fract_z
 _atom_site_fract_occupancy
 Ni  Ni1  1  0.00000  0.00000  0.34051  1
 Ni  Ni2  1  0.50000  0.50000  0.65949  1
 Si  Si1  1  0.00000  0.00000  0.84015  1
 Si  Si2  1  0.50000  0.50000  0.15985  1
