CIF file written using JARVIS-Tools package.
data_NdPd
_symmetry_space_group_name_H-M  'Cmcm'
_cell_length_a       3.87707
_cell_length_b       4.62764
_cell_length_c       5.78013
_cell_angle_alpha    90
_cell_angle_beta     70.4043
_cell_angle_gamma    90

_symmetry_Int_Tables_number  63
_chemical_formula_structural  NdPd
_chemical_formula_sum  Nd2Pd2
_cell_volume  97.69905249597703
_cell_formula_units_Z  2
loop_
  _symmetry_equiv_pos_site_id
 _symmetry_equiv_pos_as_xyz
 1  'x, y, z'
loop_
 _atom_site_type_symbol
 _atom_site_label
 _atom_site_symmetry_multiplicity
 _atom_site_fract_x
 _atom_site_fract_y
 _atom_site_fract_z
 _atom_site_fract_occupancy
 Nd  Nd1  1  0.13660  0.75000  0.72680  1
 Nd  Nd2  1  0.86340  0.25000  0.27320  1
 Pd  Pd1  1  0.41277  0.75000  0.17446  1
 Pd  Pd2  1  0.58723  0.25000  0.82554  1
