CIF file written using JARVIS-Tools package.
data_NbCrO4
_symmetry_space_group_name_H-M  'I4_1md'
_cell_length_a       5.59091
_cell_length_b       5.59091
_cell_length_c       5.59091
_cell_angle_alpha    72.9997
_cell_angle_beta     107
_cell_angle_gamma    65.4652

_symmetry_Int_Tables_number  109
_chemical_formula_structural  NbCrO4
_chemical_formula_sum  Nb2Cr2O8
_cell_volume  133.73670970486535
_cell_formula_units_Z  2
loop_
  _symmetry_equiv_pos_site_id
 _symmetry_equiv_pos_as_xyz
 1  'x, y, z'
loop_
 _atom_site_type_symbol
 _atom_site_label
 _atom_site_symmetry_multiplicity
 _atom_site_fract_x
 _atom_site_fract_y
 _atom_site_fract_z
 _atom_site_fract_occupancy
 Cr  Cr1  1  0.75209  0.74791  0.50000  1
 Cr  Cr2  1  0.50209  0.49791  0.00000  1
 Nb  Nb1  1  0.26392  0.23608  0.50000  1
 Nb  Nb2  1  0.01392  0.98608  0.00000  1
 O  O1  1  0.55015  0.25535  0.80550  1
 O  O2  1  0.04497  0.75266  0.79763  1
 O  O3  1  0.99465  0.31085  0.69450  1
 O  O4  1  0.49734  0.80028  0.70237  1
 O  O5  1  0.99465  0.69985  0.30550  1
 O  O6  1  0.49734  0.20503  0.29763  1
 O  O7  1  0.44972  0.75266  0.20237  1
 O  O8  1  0.93915  0.25535  0.19450  1
