CIF file written using JARVIS-Tools package.
data_Li4Mn3WO8
_symmetry_space_group_name_H-M  'R-3m'
_cell_length_a       10.2544
_cell_length_b       10.2544
_cell_length_c       14.4364
_cell_angle_alpha    20.1905
_cell_angle_beta     20.1905
_cell_angle_gamma    34.7833

_symmetry_Int_Tables_number  166
_chemical_formula_structural  Li4Mn3WO8
_chemical_formula_sum  Li4Mn3WO8
_cell_volume  156.60314286155943
_cell_formula_units_Z  1
loop_
  _symmetry_equiv_pos_site_id
 _symmetry_equiv_pos_as_xyz
 1  'x, y, z'
loop_
 _atom_site_type_symbol
 _atom_site_label
 _atom_site_symmetry_multiplicity
 _atom_site_fract_x
 _atom_site_fract_y
 _atom_site_fract_z
 _atom_site_fract_occupancy
 Li  Li1  1  -0.00000  0.00000  0.50000  1
 Li  Li2  1  0.00000  0.50000  0.50000  1
 Li  Li3  1  0.50000  0.00000  0.50000  1
 Li  Li4  1  0.50000  0.50000  0.50000  1
 Mn  Mn1  1  0.00000  0.50000  -0.00000  1
 Mn  Mn2  1  0.50000  -0.00000  0.00000  1
 Mn  Mn3  1  0.50000  0.50000  0.00000  1
 O  O1  1  0.00000  0.00000  0.26319  1
 O  O2  1  0.00000  0.54136  0.22519  1
 O  O3  1  0.54136  0.00000  0.22519  1
 O  O4  1  -0.00000  -0.00000  0.73681  1
 O  O5  1  0.45864  0.45864  0.30792  1
 O  O6  1  -0.00000  0.45864  0.77481  1
 O  O7  1  0.45864  -0.00000  0.77481  1
 O  O8  1  0.54136  0.54136  0.69208  1
 W  W1  1  0.00000  0.00000  0.00000  1
