CIF file written using JARVIS-Tools package.
data_Li3Cr3CoO8
_symmetry_space_group_name_H-M  'R-3m'
_cell_length_a       5.80893
_cell_length_b       5.77022
_cell_length_c       5.77022
_cell_angle_alpha    60
_cell_angle_beta     60.2202
_cell_angle_gamma    89.9999

_symmetry_Int_Tables_number  166
_chemical_formula_structural  Li3Cr3CoO8
_chemical_formula_sum  Li3Cr3CoO8
_cell_volume  137.21576765466733
_cell_formula_units_Z  1
loop_
  _symmetry_equiv_pos_site_id
 _symmetry_equiv_pos_as_xyz
 1  'x, y, z'
loop_
 _atom_site_type_symbol
 _atom_site_label
 _atom_site_symmetry_multiplicity
 _atom_site_fract_x
 _atom_site_fract_y
 _atom_site_fract_z
 _atom_site_fract_occupancy
 Co  Co1  1  0.00000  0.00000  0.00000  1
 Cr  Cr1  1  -0.00000  0.00000  0.50000  1
 Cr  Cr2  1  -0.00000  0.50000  -0.00000  1
 Cr  Cr3  1  -0.00000  0.50000  0.50000  1
 Li  Li1  1  0.50000  0.00000  0.00000  1
 Li  Li2  1  0.50000  0.00000  0.50000  1
 Li  Li3  1  0.50000  0.50000  0.50000  1
 O  O1  1  0.21576  0.23533  0.01957  1
 O  O2  1  0.21576  0.23533  0.52935  1
 O  O3  1  0.21576  0.74510  0.01957  1
 O  O4  1  0.22746  0.74249  0.51502  1
 O  O5  1  0.77254  0.25751  0.48498  1
 O  O6  1  0.78424  0.25490  0.98043  1
 O  O7  1  0.78424  0.76467  0.47065  1
 O  O8  1  0.78424  0.76467  0.98043  1
