CIF file written using JARVIS-Tools package.
data_BiPbClO2
_symmetry_space_group_name_H-M  'Cmcm'
_cell_length_a       5.6365
_cell_length_b       5.68039
_cell_length_c       6.842
_cell_angle_alpha    114.526
_cell_angle_beta     90
_cell_angle_gamma    90

_symmetry_Int_Tables_number  63
_chemical_formula_structural  BiPbClO2
_chemical_formula_sum  Bi2Pb2Cl2O4
_cell_volume  199.29765885318812
_cell_formula_units_Z  2
loop_
  _symmetry_equiv_pos_site_id
 _symmetry_equiv_pos_as_xyz
 1  'x, y, z'
loop_
 _atom_site_type_symbol
 _atom_site_label
 _atom_site_symmetry_multiplicity
 _atom_site_fract_x
 _atom_site_fract_y
 _atom_site_fract_z
 _atom_site_fract_occupancy
 Bi  Bi1  1  0.75000  0.09063  0.18125  1
 Bi  Bi2  1  0.25000  0.90937  0.81875  1
 Cl  Cl1  1  0.75000  0.74561  0.49122  1
 Cl  Cl2  1  0.25000  0.25439  0.50878  1
 O  O1  1  0.50000  0.23864  0.00000  1
 O  O2  1  0.00000  0.76136  -0.00000  1
 O  O3  1  0.50000  0.76136  -0.00000  1
 O  O4  1  0.00000  0.23864  0.00000  1
 Pb  Pb1  1  0.75000  0.39261  0.78522  1
 Pb  Pb2  1  0.25000  0.60739  0.21478  1
