CIF file written using JARVIS-Tools package.
data_PrNbO4
_symmetry_space_group_name_H-M  'C2/c'
_cell_length_a       5.24744
_cell_length_b       5.54199
_cell_length_c       6.82661
_cell_angle_alpha    112.295
_cell_angle_beta     110.874
_cell_angle_gamma    93.9586

_symmetry_Int_Tables_number  15
_chemical_formula_structural  PrNbO4
_chemical_formula_sum  Pr2Nb2O8
_cell_volume  166.77212164515387
_cell_formula_units_Z  2
loop_
  _symmetry_equiv_pos_site_id
 _symmetry_equiv_pos_as_xyz
 1  'x, y, z'
loop_
 _atom_site_type_symbol
 _atom_site_label
 _atom_site_symmetry_multiplicity
 _atom_site_fract_x
 _atom_site_fract_y
 _atom_site_fract_z
 _atom_site_fract_occupancy
 Nb  Nb1  1  0.35587  0.60587  0.71173  1
 Nb  Nb2  1  0.64413  0.39413  0.28827  1
 O  O1  1  0.29986  0.14045  0.08512  1
 O  O2  1  0.78526  0.44467  0.08512  1
 O  O3  1  0.70014  0.85955  0.91488  1
 O  O4  1  0.21474  0.55533  0.91488  1
 O  O5  1  0.51908  0.70926  0.43488  1
 O  O6  1  0.91581  0.22562  0.43488  1
 O  O7  1  0.48092  0.29074  0.56512  1
 O  O8  1  0.08419  0.77438  0.56512  1
 Pr  Pr1  1  0.87886  0.12886  0.75772  1
 Pr  Pr2  1  0.12114  0.87114  0.24228  1
