CIF file written using JARVIS-Tools package.
data_LiFe3O4
_symmetry_space_group_name_H-M  'Cmmm'
_cell_length_a       3.00285
_cell_length_b       5.10196
_cell_length_c       5.10193
_cell_angle_alpha    72.1508
_cell_angle_beta     90.001
_cell_angle_gamma    90.0073

_symmetry_Int_Tables_number  65
_chemical_formula_structural  LiFe3O4
_chemical_formula_sum  LiFe3O4
_cell_volume  74.40128059897573
_cell_formula_units_Z  1
loop_
  _symmetry_equiv_pos_site_id
 _symmetry_equiv_pos_as_xyz
 1  'x, y, z'
loop_
 _atom_site_type_symbol
 _atom_site_label
 _atom_site_symmetry_multiplicity
 _atom_site_fract_x
 _atom_site_fract_y
 _atom_site_fract_z
 _atom_site_fract_occupancy
 Fe  Fe1  1  0.01055  0.00058  0.99987  1
 Fe  Fe2  1  0.51064  0.00058  0.49988  1
 Fe  Fe3  1  0.01055  0.50058  0.49987  1
 Li  Li1  1  0.51036  0.50057  -0.00012  1
 O  O1  1  0.01066  0.24575  0.25471  1
 O  O2  1  0.51057  0.25592  0.75522  1
 O  O3  1  0.51058  0.74523  0.24453  1
 O  O4  1  0.01058  0.75540  0.74505  1
