CIF file written using JARVIS-Tools package.
data_BN
_symmetry_space_group_name_H-M  'Fmm2'
_cell_length_a       3.53487
_cell_length_b       3.53487
_cell_length_c       2.51061
_cell_angle_alpha    100.253
_cell_angle_beta     100.253
_cell_angle_gamma    138.346

_symmetry_Int_Tables_number  42
_chemical_formula_structural  BN
_chemical_formula_sum  BN
_cell_volume  18.049496453773898
_cell_formula_units_Z  1
loop_
  _symmetry_equiv_pos_site_id
 _symmetry_equiv_pos_as_xyz
 1  'x, y, z'
loop_
 _atom_site_type_symbol
 _atom_site_label
 _atom_site_symmetry_multiplicity
 _atom_site_fract_x
 _atom_site_fract_y
 _atom_site_fract_z
 _atom_site_fract_occupancy
 B  B1  1  0.00013  0.00013  0.00025  1
 N  N1  1  0.66657  0.66657  0.33315  1
