CIF file written using JARVIS-Tools package.
data_Sr3WO6
_symmetry_space_group_name_H-M  'R-3'
_cell_length_a       6.87754
_cell_length_b       6.87754
_cell_length_c       6.87753
_cell_angle_alpha    91.8399
_cell_angle_beta     91.8399
_cell_angle_gamma    91.84

_symmetry_Int_Tables_number  148
_chemical_formula_structural  Sr3WO6
_chemical_formula_sum  Sr6W2O2
_cell_volume  324.7962885279305
_cell_formula_units_Z  2
loop_
  _symmetry_equiv_pos_site_id
 _symmetry_equiv_pos_as_xyz
 1  'x, y, z'
loop_
 _atom_site_type_symbol
 _atom_site_label
 _atom_site_symmetry_multiplicity
 _atom_site_fract_x
 _atom_site_fract_y
 _atom_site_fract_z
 _atom_site_fract_occupancy
 O  O1  1  0.93163  0.72947  0.05827  1
 O  O2  1  0.05827  0.93163  0.72947  1
 O  O3  1  0.72947  0.05827  0.93163  1
 O  O4  1  0.22912  0.54663  0.42646  1
 O  O5  1  0.06837  0.27053  0.94173  1
 O  O6  1  0.27053  0.94173  0.06837  1
 O  O7  1  0.45337  0.57354  0.77088  1
 O  O8  1  0.54663  0.42646  0.22912  1
 O  O9  1  0.42646  0.22912  0.54663  1
 O  O10  1  0.94173  0.06837  0.27053  1
 O  O11  1  0.77088  0.45337  0.57354  1
 O  O12  1  0.57354  0.77088  0.45337  1
 Sr  Sr1  1  0.56392  0.06494  0.25363  1
 Sr  Sr2  1  0.74637  0.43608  0.93506  1
 Sr  Sr3  1  0.93506  0.74637  0.43608  1
 Sr  Sr4  1  0.06494  0.25363  0.56392  1
 Sr  Sr5  1  0.25363  0.56392  0.06494  1
 Sr  Sr6  1  0.43608  0.93506  0.74637  1
 W  W1  1  0.00000  0.00000  0.00000  1
 W  W2  1  0.50000  0.50000  0.50000  1
