CIF file written using JARVIS-Tools package.
data_TaF5
_symmetry_space_group_name_H-M  'Cmcm'
_cell_length_a       3.62744
_cell_length_b       5.73201
_cell_length_c       8.31292
_cell_angle_alpha    90
_cell_angle_beta     90
_cell_angle_gamma    108.447

_symmetry_Int_Tables_number  63
_chemical_formula_structural  TaF5
_chemical_formula_sum  Ta2F0
_cell_volume  163.96586649295116
_cell_formula_units_Z  2
loop_
  _symmetry_equiv_pos_site_id
 _symmetry_equiv_pos_as_xyz
 1  'x, y, z'
loop_
 _atom_site_type_symbol
 _atom_site_label
 _atom_site_symmetry_multiplicity
 _atom_site_fract_x
 _atom_site_fract_y
 _atom_site_fract_z
 _atom_site_fract_occupancy
 F  F1  1  0.47009  0.94019  0.25000  1
 F  F2  1  0.52991  0.05981  0.75000  1
 F  F3  1  0.07644  0.15289  0.58533  1
 F  F4  1  0.92356  0.84711  0.41467  1
 F  F5  1  0.33870  0.67741  0.91555  1
 F  F6  1  0.66130  0.32259  0.08445  1
 F  F7  1  0.66130  0.32259  0.41555  1
 F  F8  1  0.33870  0.67741  0.58445  1
 F  F9  1  0.07644  0.15289  0.91467  1
 F  F10  1  0.92356  0.84711  0.08533  1
 Ta  Ta1  1  0.50000  0.00000  0.50000  1
 Ta  Ta2  1  0.50000  0.00000  0.00000  1
