CIF file written using JARVIS-Tools package.
data_PH2F3
_symmetry_space_group_name_H-M  'Cmc2_1'
_cell_length_a       4.8235
_cell_length_b       4.82349
_cell_length_c       6.02867
_cell_angle_alpha    90
_cell_angle_beta     90
_cell_angle_gamma    109.458

_symmetry_Int_Tables_number  36
_chemical_formula_structural  PH2F3
_chemical_formula_sum  P2H4F6
_cell_volume  132.2525355068702
_cell_formula_units_Z  2
loop_
  _symmetry_equiv_pos_site_id
 _symmetry_equiv_pos_as_xyz
 1  'x, y, z'
loop_
 _atom_site_type_symbol
 _atom_site_label
 _atom_site_symmetry_multiplicity
 _atom_site_fract_x
 _atom_site_fract_y
 _atom_site_fract_z
 _atom_site_fract_occupancy
 F  F1  1  0.63412  0.36588  0.98108  1
 F  F2  1  0.74047  0.25953  0.51825  1
 F  F3  1  0.11850  0.88150  0.68294  1
 F  F4  1  0.88150  0.11850  0.18294  1
 F  F5  1  0.25953  0.74047  0.01825  1
 F  F6  1  0.36588  0.63412  0.48108  1
 H  H1  1  0.83738  0.61271  0.27481  1
 H  H2  1  0.16262  0.38729  0.77481  1
 H  H3  1  0.38729  0.16262  0.27481  1
 H  H4  1  0.61271  0.83738  0.77481  1
 P  P1  1  0.68708  0.31292  0.25111  1
 P  P2  1  0.31292  0.68708  0.75111  1
