CIF file written using JARVIS-Tools package.
data_LiTiFeO4
_symmetry_space_group_name_H-M  'Imma'
_cell_length_a       5.75697
_cell_length_b       5.78174
_cell_length_c       5.78175
_cell_angle_alpha    61.6364
_cell_angle_beta     60.1417
_cell_angle_gamma    60.1417

_symmetry_Int_Tables_number  74
_chemical_formula_structural  LiTiFeO4
_chemical_formula_sum  Li2Ti2Fe2O8
_cell_volume  137.9850720999564
_cell_formula_units_Z  2
loop_
  _symmetry_equiv_pos_site_id
 _symmetry_equiv_pos_as_xyz
 1  'x, y, z'
loop_
 _atom_site_type_symbol
 _atom_site_label
 _atom_site_symmetry_multiplicity
 _atom_site_fract_x
 _atom_site_fract_y
 _atom_site_fract_z
 _atom_site_fract_occupancy
 Fe  Fe1  1  0.00000  0.50000  0.50000  1
 Fe  Fe2  1  0.50000  0.50000  0.50000  1
 Li  Li1  1  0.12503  0.12497  0.12497  1
 Li  Li2  1  0.87497  0.87503  0.87503  1
 O  O1  1  0.26349  0.25820  0.25820  1
 O  O2  1  0.25659  0.27394  0.71289  1
 O  O3  1  0.25659  0.71289  0.27394  1
 O  O4  1  0.72011  0.25820  0.25820  1
 O  O5  1  0.27989  0.74180  0.74180  1
 O  O6  1  0.74341  0.72606  0.28711  1
 O  O7  1  0.74341  0.28711  0.72606  1
 O  O8  1  0.73651  0.74180  0.74180  1
 Ti  Ti1  1  0.50000  0.00000  0.50000  1
 Ti  Ti2  1  0.50000  0.50000  0.00000  1
