CIF file written using JARVIS-Tools package.
data_CaFeO2
_symmetry_space_group_name_H-M  'P2_1/m'
_cell_length_a       3.15413
_cell_length_b       7.7502
_cell_length_c       8.7004
_cell_angle_alpha    84.3956
_cell_angle_beta     89.9949
_cell_angle_gamma    89.9947

_symmetry_Int_Tables_number  11
_chemical_formula_structural  CaFeO2
_chemical_formula_sum  Ca4Fe4O8
_cell_volume  211.66584627134574
_cell_formula_units_Z  4
loop_
  _symmetry_equiv_pos_site_id
 _symmetry_equiv_pos_as_xyz
 1  'x, y, z'
loop_
 _atom_site_type_symbol
 _atom_site_label
 _atom_site_symmetry_multiplicity
 _atom_site_fract_x
 _atom_site_fract_y
 _atom_site_fract_z
 _atom_site_fract_occupancy
 Ca  Ca1  1  0.74997  0.70891  0.96393  1
 Ca  Ca2  1  0.25003  0.29109  0.03607  1
 Ca  Ca3  1  0.74988  0.92477  0.28324  1
 Ca  Ca4  1  0.25012  0.07523  0.71676  1
 Fe  Fe1  1  0.75009  0.42318  0.71791  1
 Fe  Fe2  1  0.24992  0.69126  0.63871  1
 Fe  Fe3  1  0.75008  0.30874  0.36129  1
 Fe  Fe4  1  0.24991  0.57682  0.28209  1
 O  O1  1  0.74998  0.46935  0.16394  1
 O  O2  1  0.75003  0.25662  0.57382  1
 O  O3  1  0.24997  0.74338  0.42618  1
 O  O4  1  0.25002  0.53065  0.83606  1
 O  O5  1  0.75009  0.19575  0.88236  1
 O  O6  1  0.75010  0.84634  0.71305  1
 O  O7  1  0.24991  0.80425  0.11764  1
 O  O8  1  0.24990  0.15366  0.28695  1
