CIF file written using JARVIS-Tools package.
data_CaVO2
_symmetry_space_group_name_H-M  'P-1'
_cell_length_a       3.06818
_cell_length_b       8.76932
_cell_length_c       8.46489
_cell_angle_alpha    90.543
_cell_angle_beta     79.5565
_cell_angle_gamma    79.8628

_symmetry_Int_Tables_number  2
_chemical_formula_structural  CaVO2
_chemical_formula_sum  Ca4V4O8
_cell_volume  220.2835435080111
_cell_formula_units_Z  4
loop_
  _symmetry_equiv_pos_site_id
 _symmetry_equiv_pos_as_xyz
 1  'x, y, z'
loop_
 _atom_site_type_symbol
 _atom_site_label
 _atom_site_symmetry_multiplicity
 _atom_site_fract_x
 _atom_site_fract_y
 _atom_site_fract_z
 _atom_site_fract_occupancy
 Ca  Ca1  1  0.38330  0.31136  0.92320  1
 Ca  Ca2  1  0.59264  0.71684  0.09688  1
 Ca  Ca3  1  0.83704  0.08976  0.23872  1
 Ca  Ca4  1  0.13890  0.93844  0.78136  1
 O  O1  1  0.54720  0.57040  0.33488  1
 O  O2  1  0.79049  0.80185  0.61540  1
 O  O3  1  0.18547  0.22635  0.40469  1
 O  O4  1  0.42872  0.45781  0.68521  1
 O  O5  1  0.21069  0.68888  0.88889  1
 O  O6  1  0.03652  0.19477  0.73445  1
 O  O7  1  0.76524  0.33932  0.13119  1
 O  O8  1  0.93947  0.83343  0.28564  1
 V  V1  1  0.83187  0.60077  0.73511  1
 V  V2  1  0.58786  0.24856  0.57761  1
 V  V3  1  0.38815  0.77964  0.44248  1
 V  V4  1  0.14404  0.42744  0.28497  1
