CIF file written using JARVIS-Tools package.
data_TiNi
_symmetry_space_group_name_H-M  'P2_1/m'
_cell_length_a       2.9575
_cell_length_b       3.98404
_cell_length_c       4.81381
_cell_angle_alpha    90
_cell_angle_beta     104.264
_cell_angle_gamma    90

_symmetry_Int_Tables_number  11
_chemical_formula_structural  TiNi
_chemical_formula_sum  Ti2Ni2
_cell_volume  54.97151303466556
_cell_formula_units_Z  2
loop_
  _symmetry_equiv_pos_site_id
 _symmetry_equiv_pos_as_xyz
 1  'x, y, z'
loop_
 _atom_site_type_symbol
 _atom_site_label
 _atom_site_symmetry_multiplicity
 _atom_site_fract_x
 _atom_site_fract_y
 _atom_site_fract_z
 _atom_site_fract_occupancy
 Ni  Ni1  1  0.07465  0.75000  0.17281  1
 Ni  Ni2  1  -0.07465  0.25000  0.82719  1
 Ti  Ti1  1  0.62575  0.25000  0.28498  1
 Ti  Ti2  1  0.37425  0.75000  0.71502  1
