CIF file written using JARVIS-Tools package.
data_Fe6O5F7
_symmetry_space_group_name_H-M  'P1'
_cell_length_a       4.6265
_cell_length_b       5.63187
_cell_length_c       7.6546
_cell_angle_alpha    85.775
_cell_angle_beta     89.0285
_cell_angle_gamma    88.9696

_symmetry_Int_Tables_number  1
_chemical_formula_structural  Fe6O5F7
_chemical_formula_sum  Fe6O5F7
_cell_volume  198.84850905019724
_cell_formula_units_Z  1
loop_
  _symmetry_equiv_pos_site_id
 _symmetry_equiv_pos_as_xyz
 1  'x, y, z'
loop_
 _atom_site_type_symbol
 _atom_site_label
 _atom_site_symmetry_multiplicity
 _atom_site_fract_x
 _atom_site_fract_y
 _atom_site_fract_z
 _atom_site_fract_occupancy
 F  F1  1  0.21929  0.29804  0.91099  1
 F  F2  1  0.21225  0.97175  0.21579  1
 F  F3  1  0.28940  0.79983  0.88515  1
 F  F4  1  0.28568  0.13024  0.56873  1
 F  F5  1  0.71922  0.20235  0.10875  1
 F  F6  1  0.79358  0.36592  0.44212  1
 F  F7  1  0.19586  0.62583  0.56024  1
 Fe  Fe1  1  0.56349  0.81839  0.65235  1
 Fe  Fe2  1  0.96585  0.97613  0.98453  1
 Fe  Fe3  1  0.99542  0.66870  0.31872  1
 Fe  Fe4  1  0.97447  0.33708  0.68897  1
 Fe  Fe5  1  0.48951  0.17110  0.33628  1
 Fe  Fe6  1  0.50435  0.51582  0.01628  1
 O  O1  1  0.29742  0.47366  0.23165  1
 O  O2  1  0.79554  0.69419  0.10594  1
 O  O3  1  0.78788  0.04555  0.76193  1
 O  O4  1  0.71310  0.86825  0.42111  1
 O  O5  1  0.69767  0.53716  0.79045  1
