CIF file written using JARVIS-Tools package.
data_Li2AlCoO4
_symmetry_space_group_name_H-M  'Pc'
_cell_length_a       4.97596
_cell_length_b       5.40373
_cell_length_c       8.02322
_cell_angle_alpha    90
_cell_angle_beta     128.2
_cell_angle_gamma    90

_symmetry_Int_Tables_number  7
_chemical_formula_structural  Li2AlCoO4
_chemical_formula_sum  Li4Al2Co2O8
_cell_volume  169.53699412945733
_cell_formula_units_Z  2
loop_
  _symmetry_equiv_pos_site_id
 _symmetry_equiv_pos_as_xyz
 1  'x, y, z'
loop_
 _atom_site_type_symbol
 _atom_site_label
 _atom_site_symmetry_multiplicity
 _atom_site_fract_x
 _atom_site_fract_y
 _atom_site_fract_z
 _atom_site_fract_occupancy
 Al  Al1  1  0.75096  0.66954  0.75367  1
 Al  Al2  1  0.75096  0.33046  0.25367  1
 Co  Co1  1  0.99938  0.16663  -0.00010  1
 Co  Co2  1  0.99938  0.83337  0.49990  1
 Li  Li1  1  0.25507  0.33185  0.75271  1
 Li  Li2  1  0.50629  0.83237  0.00416  1
 Li  Li3  1  0.25507  0.66815  0.25271  1
 Li  Li4  1  0.50629  0.16763  0.50416  1
 O  O1  1  0.38140  0.67891  0.74338  1
 O  O2  1  0.64153  0.18110  0.02079  1
 O  O3  1  0.08769  0.16678  0.48558  1
 O  O4  1  0.86628  0.64512  0.26272  1
 O  O5  1  0.38140  0.32109  0.24338  1
 O  O6  1  0.64153  0.81890  0.52079  1
 O  O7  1  0.08769  0.83322  0.98558  1
 O  O8  1  0.86628  0.35488  0.76272  1
