CIF file written using JARVIS-Tools package.
data_Er2Si2O7
_symmetry_space_group_name_H-M  'C2/m'
_cell_length_a       4.76339
_cell_length_b       5.62931
_cell_length_c       5.62931
_cell_angle_alpha    105.036
_cell_angle_beta     97.2177
_cell_angle_gamma    97.2177

_symmetry_Int_Tables_number  12
_chemical_formula_structural  Er2Si2O7
_chemical_formula_sum  Er2Si2O7
_cell_volume  142.63842737206707
_cell_formula_units_Z  1
loop_
  _symmetry_equiv_pos_site_id
 _symmetry_equiv_pos_as_xyz
 1  'x, y, z'
loop_
 _atom_site_type_symbol
 _atom_site_label
 _atom_site_symmetry_multiplicity
 _atom_site_fract_x
 _atom_site_fract_y
 _atom_site_fract_z
 _atom_site_fract_occupancy
 Er  Er1  1  0.00000  0.30661  0.69339  1
 Er  Er2  1  -0.00000  0.69339  0.30661  1
 O  O1  1  0.77882  0.91421  0.61148  1
 O  O2  1  0.22118  0.38852  0.08579  1
 O  O3  1  0.22118  0.08579  0.38852  1
 O  O4  1  0.77882  0.61148  0.91421  1
 O  O5  1  0.50000  0.00000  -0.00000  1
 O  O6  1  0.28320  0.61630  0.61630  1
 O  O7  1  0.71680  0.38370  0.38370  1
 Si  Si1  1  0.41270  0.22023  0.22023  1
 Si  Si2  1  0.58730  0.77977  0.77977  1
