CIF file written using JARVIS-Tools package.
data_MnOF2
_symmetry_space_group_name_H-M  'P2_1/c'
_cell_length_a       5.66922
_cell_length_b       4.87273
_cell_length_c       7.39609
_cell_angle_alpha    90
_cell_angle_beta     101.988
_cell_angle_gamma    90

_symmetry_Int_Tables_number  14
_chemical_formula_structural  MnOF2
_chemical_formula_sum  Mn4O4F8
_cell_volume  199.85743349350173
_cell_formula_units_Z  4
loop_
  _symmetry_equiv_pos_site_id
 _symmetry_equiv_pos_as_xyz
 1  'x, y, z'
loop_
 _atom_site_type_symbol
 _atom_site_label
 _atom_site_symmetry_multiplicity
 _atom_site_fract_x
 _atom_site_fract_y
 _atom_site_fract_z
 _atom_site_fract_occupancy
 F  F1  1  0.09611  0.83553  0.73293  1
 F  F2  1  0.59611  0.66447  0.73293  1
 F  F3  1  0.18185  0.33741  0.58567  1
 F  F4  1  0.68185  0.16259  0.58567  1
 F  F5  1  0.31815  0.83741  0.41433  1
 F  F6  1  0.81815  0.66259  0.41433  1
 F  F7  1  0.40389  0.33553  0.26707  1
 F  F8  1  0.90389  0.16447  0.26707  1
 Mn  Mn1  1  0.39313  0.99641  0.68961  1
 Mn  Mn2  1  0.89313  0.50359  0.68961  1
 Mn  Mn3  1  0.10687  0.49641  0.31039  1
 Mn  Mn4  1  0.60687  0.00359  0.31039  1
 O  O1  1  -0.00255  0.39664  0.93952  1
 O  O2  1  0.49745  0.10336  0.93952  1
 O  O3  1  0.50255  0.89664  0.06048  1
 O  O4  1  0.00255  0.60336  0.06048  1
