CIF file written using JARVIS-Tools package.
data_Li5Co5Sn2O12
_symmetry_space_group_name_H-M  'C2'
_cell_length_a       5.20702
_cell_length_b       5.20702
_cell_length_c       9.89322
_cell_angle_alpha    83.7114
_cell_angle_beta     96.2886
_cell_angle_gamma    60.442

_symmetry_Int_Tables_number  5
_chemical_formula_structural  Li5Co5Sn2O12
_chemical_formula_sum  Li5Co5Sn2O2
_cell_volume  227.73422360889577
_cell_formula_units_Z  1
loop_
  _symmetry_equiv_pos_site_id
 _symmetry_equiv_pos_as_xyz
 1  'x, y, z'
loop_
 _atom_site_type_symbol
 _atom_site_label
 _atom_site_symmetry_multiplicity
 _atom_site_fract_x
 _atom_site_fract_y
 _atom_site_fract_z
 _atom_site_fract_occupancy
 Co  Co1  1  0.09620  0.09620  0.25000  1
 Co  Co2  1  0.00568  0.49942  0.00194  1
 Co  Co3  1  0.49942  0.00568  0.49806  1
 Co  Co4  1  0.40716  0.40716  0.25000  1
 Co  Co5  1  0.58023  0.58023  0.75000  1
 Li  Li1  1  0.19086  0.68723  0.50097  1
 Li  Li2  1  0.33200  0.80553  0.99375  1
 Li  Li3  1  0.68723  0.19086  0.99903  1
 Li  Li4  1  0.80553  0.33200  0.50625  1
 Li  Li5  1  0.91031  0.91031  0.75000  1
 O  O1  1  0.62181  0.84042  0.86609  1
 O  O2  1  0.70827  0.46678  0.13095  1
 O  O3  1  0.46678  0.70827  0.36905  1
 O  O4  1  0.52697  0.30956  0.63218  1
 O  O5  1  0.30956  0.52697  0.86782  1
 O  O6  1  0.37744  0.12649  0.12224  1
 O  O7  1  0.03218  0.79789  0.12652  1
 O  O8  1  0.23529  0.94166  0.63193  1
 O  O9  1  0.94166  0.23529  0.86807  1
 O  O10  1  0.79789  0.03218  0.37348  1
 O  O11  1  0.84042  0.62181  0.63391  1
 O  O12  1  0.12649  0.37744  0.37776  1
 Sn  Sn1  1  0.75238  0.75238  0.25000  1
 Sn  Sn2  1  0.24821  0.24821  0.75000  1
