CIF file written using JARVIS-Tools package.
data_NdTaO4
_symmetry_space_group_name_H-M  'C2/c'
_cell_length_a       5.16359
_cell_length_b       5.54302
_cell_length_c       6.71648
_cell_angle_alpha    112.062
_cell_angle_beta     110.159
_cell_angle_gamma    95.5297

_symmetry_Int_Tables_number  15
_chemical_formula_structural  NdTaO4
_chemical_formula_sum  Nd2Ta2O8
_cell_volume  161.51652422910644
_cell_formula_units_Z  2
loop_
  _symmetry_equiv_pos_site_id
 _symmetry_equiv_pos_as_xyz
 1  'x, y, z'
loop_
 _atom_site_type_symbol
 _atom_site_label
 _atom_site_symmetry_multiplicity
 _atom_site_fract_x
 _atom_site_fract_y
 _atom_site_fract_z
 _atom_site_fract_occupancy
 Nd  Nd1  1  0.38165  0.63165  0.26329  1
 Nd  Nd2  1  0.61835  0.36835  0.73671  1
 O  O1  1  0.99722  0.79514  0.06293  1
 O  O2  1  0.56571  0.26779  0.06293  1
 O  O3  1  0.00278  0.20486  0.93707  1
 O  O4  1  0.43429  0.73221  0.93707  1
 O  O5  1  0.19726  0.35740  0.41349  1
 O  O6  1  0.71622  0.05609  0.41349  1
 O  O7  1  0.80274  0.64260  0.58651  1
 O  O8  1  0.28378  0.94391  0.58651  1
 Ta  Ta1  1  0.84927  0.09927  0.19854  1
 Ta  Ta2  1  0.15073  0.90073  0.80146  1
