CIF file written using JARVIS-Tools package.
data_Li4Fe3TeO12
_symmetry_space_group_name_H-M  'P2'
_cell_length_a       4.78878
_cell_length_b       8.09738
_cell_length_c       4.91762
_cell_angle_alpha    90
_cell_angle_beta     90.7307
_cell_angle_gamma    90

_symmetry_Int_Tables_number  3
_chemical_formula_structural  Li4Fe3TeO12
_chemical_formula_sum  Li4Fe3TeO2
_cell_volume  190.67318263758517
_cell_formula_units_Z  1
loop_
  _symmetry_equiv_pos_site_id
 _symmetry_equiv_pos_as_xyz
 1  'x, y, z'
loop_
 _atom_site_type_symbol
 _atom_site_label
 _atom_site_symmetry_multiplicity
 _atom_site_fract_x
 _atom_site_fract_y
 _atom_site_fract_z
 _atom_site_fract_occupancy
 Fe  Fe1  1  0.50000  0.42467  0.00000  1
 Fe  Fe2  1  -0.00000  0.89708  0.50000  1
 Fe  Fe3  1  0.50000  0.60679  0.50000  1
 Li  Li1  1  0.00000  0.69862  0.00000  1
 Li  Li2  1  0.50000  0.80206  0.00000  1
 Li  Li3  1  -0.00000  0.33354  0.50000  1
 Li  Li4  1  0.50000  0.20422  0.50000  1
 O  O1  1  0.25203  0.26242  0.83905  1
 O  O2  1  0.69880  0.58709  0.18237  1
 O  O3  1  0.20595  0.91805  0.82442  1
 O  O4  1  0.69505  0.43398  0.68651  1
 O  O5  1  0.30120  0.58709  0.81763  1
 O  O6  1  0.30495  0.43398  0.31349  1
 O  O7  1  0.24666  0.75523  0.35735  1
 O  O8  1  0.20748  0.07939  0.33628  1
 O  O9  1  0.79252  0.07939  0.66372  1
 O  O10  1  0.79405  0.91805  0.17558  1
 O  O11  1  0.75334  0.75523  0.64265  1
 O  O12  1  0.74797  0.26242  0.16095  1
 Te  Te1  1  0.00000  0.10178  0.00000  1
