CIF file written using JARVIS-Tools package.
data_SmCoC2
_symmetry_space_group_name_H-M  'Amm2'
_cell_length_a       3.70486
_cell_length_b       3.78434
_cell_length_c       3.78434
_cell_angle_alpha    106.561
_cell_angle_beta     90
_cell_angle_gamma    90

_symmetry_Int_Tables_number  38
_chemical_formula_structural  SmCoC2
_chemical_formula_sum  SmCoC2
_cell_volume  50.85726461072847
_cell_formula_units_Z  1
loop_
  _symmetry_equiv_pos_site_id
 _symmetry_equiv_pos_as_xyz
 1  'x, y, z'
loop_
 _atom_site_type_symbol
 _atom_site_label
 _atom_site_symmetry_multiplicity
 _atom_site_fract_x
 _atom_site_fract_y
 _atom_site_fract_z
 _atom_site_fract_occupancy
 C  C1  1  0.50000  0.84812  0.45442  1
 C  C2  1  0.50000  0.54558  0.15188  1
 Co  Co1  1  0.50000  0.38687  0.61313  1
 Sm  Sm1  1  0.00000  0.00443  0.99557  1
