CIF file written using JARVIS-Tools package.
data_Li2CrO4
_symmetry_space_group_name_H-M  'P1'
_cell_length_a       5.19951
_cell_length_b       5.17046
_cell_length_c       7.76602
_cell_angle_alpha    79.1379
_cell_angle_beta     108.139
_cell_angle_gamma    116.726

_symmetry_Int_Tables_number  1
_chemical_formula_structural  Li2CrO4
_chemical_formula_sum  Li4Cr2O8
_cell_volume  176.9203878339961
_cell_formula_units_Z  2
loop_
  _symmetry_equiv_pos_site_id
 _symmetry_equiv_pos_as_xyz
 1  'x, y, z'
loop_
 _atom_site_type_symbol
 _atom_site_label
 _atom_site_symmetry_multiplicity
 _atom_site_fract_x
 _atom_site_fract_y
 _atom_site_fract_z
 _atom_site_fract_occupancy
 Cr  Cr1  1  0.32283  0.70452  0.22279  1
 Cr  Cr2  1  0.66799  0.33290  0.74528  1
 Li  Li1  1  0.70434  0.34585  0.19355  1
 Li  Li2  1  0.27933  0.68831  0.60818  1
 Li  Li3  1  0.97839  0.12159  0.52767  1
 Li  Li4  1  0.08095  0.19212  0.97220  1
 O  O1  1  0.13287  0.84711  0.05766  1
 O  O2  1  0.39625  0.47666  0.14051  1
 O  O3  1  0.63342  0.96357  0.33057  1
 O  O4  1  0.10782  0.51929  0.36720  1
 O  O5  1  0.97527  0.34331  0.70766  1
 O  O6  1  0.35587  0.08437  0.62460  1
 O  O7  1  0.65766  0.65115  0.69801  1
 O  O8  1  0.70491  0.23844  0.96443  1
