CIF file written using JARVIS-Tools package.
data_NaTaGeO5
_symmetry_space_group_name_H-M  'C2/c'
_cell_length_a       5.66412
_cell_length_b       5.66411
_cell_length_c       7.46343
_cell_angle_alpha    104.615
_cell_angle_beta     104.615
_cell_angle_gamma    105.403

_symmetry_Int_Tables_number  15
_chemical_formula_structural  NaTaGeO5
_chemical_formula_sum  Na2Ta2Ge2O0
_cell_volume  209.8798390782188
_cell_formula_units_Z  2
loop_
  _symmetry_equiv_pos_site_id
 _symmetry_equiv_pos_as_xyz
 1  'x, y, z'
loop_
 _atom_site_type_symbol
 _atom_site_label
 _atom_site_symmetry_multiplicity
 _atom_site_fract_x
 _atom_site_fract_y
 _atom_site_fract_z
 _atom_site_fract_occupancy
 Ge  Ge1  1  0.68278  0.31722  0.75000  1
 Ge  Ge2  1  0.31722  0.68278  0.25000  1
 Na  Na1  1  0.67351  0.32649  0.25000  1
 Na  Na2  1  0.32649  0.67351  0.75000  1
 O  O1  1  0.06689  0.93311  0.75000  1
 O  O2  1  0.93311  0.06689  0.25000  1
 O  O3  1  0.10394  0.69430  0.38789  1
 O  O4  1  0.30570  0.89606  0.11211  1
 O  O5  1  0.89606  0.30570  0.61211  1
 O  O6  1  0.69430  0.10394  0.88789  1
 O  O7  1  0.36615  0.24397  0.58550  1
 O  O8  1  0.75603  0.63385  0.91450  1
 O  O9  1  0.63385  0.75603  0.41450  1
 O  O10  1  0.24397  0.36615  0.08550  1
 Ta  Ta1  1  -0.00000  -0.00000  0.50000  1
 Ta  Ta2  1  0.00000  0.00000  0.00000  1
