CIF file written using JARVIS-Tools package.
data_BaMnO3
_symmetry_space_group_name_H-M  'R-3m'
_cell_length_a       7.76479
_cell_length_b       7.76478
_cell_length_c       7.76478
_cell_angle_alpha    43.1439
_cell_angle_beta     43.144
_cell_angle_gamma    43.1439

_symmetry_Int_Tables_number  166
_chemical_formula_structural  BaMnO3
_chemical_formula_sum  Ba3Mn3O9
_cell_volume  198.48906092384144
_cell_formula_units_Z  3
loop_
  _symmetry_equiv_pos_site_id
 _symmetry_equiv_pos_as_xyz
 1  'x, y, z'
loop_
 _atom_site_type_symbol
 _atom_site_label
 _atom_site_symmetry_multiplicity
 _atom_site_fract_x
 _atom_site_fract_y
 _atom_site_fract_z
 _atom_site_fract_occupancy
 Ba  Ba1  1  0.78174  0.78174  0.78174  1
 Ba  Ba2  1  0.21826  0.21826  0.21826  1
 Ba  Ba3  1  0.00000  0.00000  0.00000  1
 Mn  Mn1  1  0.61904  0.61904  0.61904  1
 Mn  Mn2  1  0.38096  0.38096  0.38096  1
 Mn  Mn3  1  0.50000  0.50000  0.50000  1
 O  O1  1  0.50000  0.00000  0.50000  1
 O  O2  1  0.00000  0.50000  0.50000  1
 O  O3  1  0.50000  0.50000  0.00000  1
 O  O4  1  0.29404  0.29404  0.73661  1
 O  O5  1  0.29404  0.73661  0.29404  1
 O  O6  1  0.73661  0.29404  0.29404  1
 O  O7  1  0.70596  0.26339  0.70596  1
 O  O8  1  0.70596  0.70596  0.26339  1
 O  O9  1  0.26339  0.70596  0.70596  1
