CIF file written using JARVIS-Tools package.
data_Li2FeC2O6
_symmetry_space_group_name_H-M  'C2/m'
_cell_length_a       4.94757
_cell_length_b       5.34754
_cell_length_c       5.88681
_cell_angle_alpha    89.999
_cell_angle_beta     111.181
_cell_angle_gamma    122.711

_symmetry_Int_Tables_number  12
_chemical_formula_structural  Li2FeC2O6
_chemical_formula_sum  Li2FeC2O6
_cell_volume  118.35055599815018
_cell_formula_units_Z  1
loop_
  _symmetry_equiv_pos_site_id
 _symmetry_equiv_pos_as_xyz
 1  'x, y, z'
loop_
 _atom_site_type_symbol
 _atom_site_label
 _atom_site_symmetry_multiplicity
 _atom_site_fract_x
 _atom_site_fract_y
 _atom_site_fract_z
 _atom_site_fract_occupancy
 C  C1  1  0.15597  0.57798  0.76012  1
 C  C2  1  0.84404  0.42202  0.23988  1
 Fe  Fe1  1  0.00000  0.00000  -0.00000  1
 Li  Li1  1  0.50000  0.50000  0.50000  1
 Li  Li2  1  0.50000  0.00000  0.50000  1
 O  O1  1  0.00114  0.71015  0.75766  1
 O  O2  1  0.00112  0.29099  0.75766  1
 O  O3  1  0.45737  0.72867  0.74056  1
 O  O4  1  0.54263  0.27133  0.25944  1
 O  O5  1  0.99888  0.70901  0.24234  1
 O  O6  1  0.99886  0.28985  0.24234  1
