CIF file written using JARVIS-Tools package.
data_Lu3AlO6
_symmetry_space_group_name_H-M  'Cmc2_1'
_cell_length_a       6.90256
_cell_length_b       6.90256
_cell_length_c       5.26581
_cell_angle_alpha    90
_cell_angle_beta     90
_cell_angle_gamma    77.2729

_symmetry_Int_Tables_number  36
_chemical_formula_structural  Lu3AlO6
_chemical_formula_sum  Lu6Al2O2
_cell_volume  244.7272334969575
_cell_formula_units_Z  2
loop_
  _symmetry_equiv_pos_site_id
 _symmetry_equiv_pos_as_xyz
 1  'x, y, z'
loop_
 _atom_site_type_symbol
 _atom_site_label
 _atom_site_symmetry_multiplicity
 _atom_site_fract_x
 _atom_site_fract_y
 _atom_site_fract_z
 _atom_site_fract_occupancy
 Al  Al1  1  0.19523  0.19523  0.01009  1
 Al  Al2  1  0.80477  0.80477  0.51009  1
 Lu  Lu1  1  0.29757  0.91299  0.47763  1
 Lu  Lu2  1  0.08701  0.70243  0.97763  1
 Lu  Lu3  1  0.39786  0.39786  0.42967  1
 Lu  Lu4  1  0.60214  0.60214  0.92967  1
 Lu  Lu5  1  0.70243  0.08701  0.97763  1
 Lu  Lu6  1  0.91299  0.29757  0.47763  1
 O  O1  1  0.35711  0.67889  0.20414  1
 O  O2  1  0.67889  0.35711  0.20414  1
 O  O3  1  0.10761  0.42045  0.18253  1
 O  O4  1  0.57955  0.89239  0.68253  1
 O  O5  1  0.32111  0.64289  0.70414  1
 O  O6  1  0.42045  0.10761  0.18253  1
 O  O7  1  0.78471  0.78471  0.17568  1
 O  O8  1  0.95823  0.95823  0.64131  1
 O  O9  1  0.04177  0.04177  0.14131  1
 O  O10  1  0.89239  0.57955  0.68253  1
 O  O11  1  0.21529  0.21529  0.67568  1
 O  O12  1  0.64289  0.32111  0.70414  1
