CIF file written using JARVIS-Tools package.
data_LiSbO3
_symmetry_space_group_name_H-M  'Pnna'
_cell_length_a       4.90232
_cell_length_b       5.2467
_cell_length_c       8.63234
_cell_angle_alpha    90
_cell_angle_beta     90
_cell_angle_gamma    90

_symmetry_Int_Tables_number  52
_chemical_formula_structural  LiSbO3
_chemical_formula_sum  Li4Sb4O2
_cell_volume  222.03225241279048
_cell_formula_units_Z  4
loop_
  _symmetry_equiv_pos_site_id
 _symmetry_equiv_pos_as_xyz
 1  'x, y, z'
loop_
 _atom_site_type_symbol
 _atom_site_label
 _atom_site_symmetry_multiplicity
 _atom_site_fract_x
 _atom_site_fract_y
 _atom_site_fract_z
 _atom_site_fract_occupancy
 Li  Li1  1  0.00000  0.75000  0.69157  1
 Li  Li2  1  0.50000  0.75000  0.80843  1
 Li  Li3  1  0.00000  0.25000  0.30843  1
 Li  Li4  1  0.50000  0.25000  0.19157  1
 O  O1  1  0.71026  0.57580  0.58098  1
 O  O2  1  0.71026  0.07580  0.41902  1
 O  O3  1  0.28974  0.92420  0.58098  1
 O  O4  1  0.25000  0.41377  0.75000  1
 O  O5  1  0.78974  0.57580  0.91902  1
 O  O6  1  0.25000  0.91377  0.25000  1
 O  O7  1  0.78974  0.07580  0.08098  1
 O  O8  1  0.21026  0.42420  0.08098  1
 O  O9  1  0.75000  0.58623  0.25000  1
 O  O10  1  0.28974  0.42420  0.41902  1
 O  O11  1  0.75000  0.08623  0.75000  1
 O  O12  1  0.21026  0.92420  0.91902  1
 Sb  Sb1  1  0.50000  0.75000  0.40524  1
 Sb  Sb2  1  0.00000  0.25000  0.90524  1
 Sb  Sb3  1  0.50000  0.25000  0.59476  1
 Sb  Sb4  1  0.00000  0.75000  0.09476  1
