CIF file written using JARVIS-Tools package.
data_Li2Si2Ni2O7
_symmetry_space_group_name_H-M  'Ama2'
_cell_length_a       5.01507
_cell_length_b       4.81703
_cell_length_c       13.0579
_cell_angle_alpha    90
_cell_angle_beta     90
_cell_angle_gamma    121.37

_symmetry_Int_Tables_number  40
_chemical_formula_structural  Li2Si2Ni2O7
_chemical_formula_sum  Li4Si4Ni4O4
_cell_volume  269.340119764909
_cell_formula_units_Z  2
loop_
  _symmetry_equiv_pos_site_id
 _symmetry_equiv_pos_as_xyz
 1  'x, y, z'
loop_
 _atom_site_type_symbol
 _atom_site_label
 _atom_site_symmetry_multiplicity
 _atom_site_fract_x
 _atom_site_fract_y
 _atom_site_fract_z
 _atom_site_fract_occupancy
 Li  Li1  1  0.34169  0.59445  0.58324  1
 Li  Li2  1  0.34169  0.59445  0.91676  1
 Li  Li3  1  0.74724  0.40555  0.41676  1
 Li  Li4  1  0.74724  0.40555  0.08324  1
 Ni  Ni1  1  0.01418  0.99636  0.75000  1
 Ni  Ni2  1  0.01782  0.00364  0.25000  1
 Ni  Ni3  1  0.04004  0.00000  0.00000  1
 Ni  Ni4  1  0.04004  0.00000  0.50000  1
 O  O1  1  0.92107  0.55309  0.94933  1
 O  O2  1  0.13472  0.80681  0.36492  1
 O  O3  1  0.36159  0.51277  0.25000  1
 O  O4  1  0.72489  0.97227  0.86974  1
 O  O5  1  0.72489  0.97227  0.63026  1
 O  O6  1  0.13472  0.80681  0.13508  1
 O  O7  1  0.36797  0.44691  0.44933  1
 O  O8  1  0.32791  0.19319  0.63508  1
 O  O9  1  0.32791  0.19319  0.86492  1
 O  O10  1  0.75262  0.02773  0.36974  1
 O  O11  1  0.75262  0.02773  0.13026  1
 O  O12  1  0.36797  0.44691  0.05067  1
 O  O13  1  0.84882  0.48723  0.75000  1
 O  O14  1  0.92107  0.55309  0.55067  1
 Si  Si1  1  0.69608  0.29739  0.86363  1
 Si  Si2  1  0.69608  0.29739  0.63637  1
 Si  Si3  1  0.39868  0.70261  0.13637  1
 Si  Si4  1  0.39868  0.70261  0.36363  1
