CIF file written using JARVIS-Tools package.
data_YScAg2
_symmetry_space_group_name_H-M  'Fm-3m'
_cell_length_a       12.2018
_cell_length_b       8.62845
_cell_length_c       8.62838
_cell_angle_alpha    33.5762
_cell_angle_beta     19.4807
_cell_angle_gamma    19.4808

_symmetry_Int_Tables_number  225
_chemical_formula_structural  YScAg2
_chemical_formula_sum  YScAg2
_cell_volume  87.4816063771382
_cell_formula_units_Z  1
loop_
  _symmetry_equiv_pos_site_id
 _symmetry_equiv_pos_as_xyz
 1  'x, y, z'
loop_
 _atom_site_type_symbol
 _atom_site_label
 _atom_site_symmetry_multiplicity
 _atom_site_fract_x
 _atom_site_fract_y
 _atom_site_fract_z
 _atom_site_fract_occupancy
 Ag  Ag1  1  0.75029  -0.00020  -0.00020  1
 Ag  Ag2  1  0.24971  0.00020  0.00020  1
 Sc  Sc1  1  -0.00000  0.00000  0.00000  1
 Y  Y1  1  0.50000  0.00000  0.00000  1
