CIF file written using JARVIS-Tools package.
data_Li2Si2NiO6
_symmetry_space_group_name_H-M  'C2/c'
_cell_length_a       5.62274
_cell_length_b       5.62274
_cell_length_c       9.09804
_cell_angle_alpha    90.0965
_cell_angle_beta     89.9035
_cell_angle_gamma    61.9132

_symmetry_Int_Tables_number  15
_chemical_formula_structural  Li2Si2NiO6
_chemical_formula_sum  Li4Si4Ni2O2
_cell_volume  253.76185961325334
_cell_formula_units_Z  2
loop_
  _symmetry_equiv_pos_site_id
 _symmetry_equiv_pos_as_xyz
 1  'x, y, z'
loop_
 _atom_site_type_symbol
 _atom_site_label
 _atom_site_symmetry_multiplicity
 _atom_site_fract_x
 _atom_site_fract_y
 _atom_site_fract_z
 _atom_site_fract_occupancy
 Li  Li1  1  0.61331  0.71676  0.88268  1
 Li  Li2  1  0.28324  0.38669  0.38268  1
 Li  Li3  1  0.71676  0.61331  0.61732  1
 Li  Li4  1  0.38669  0.28324  0.11732  1
 Ni  Ni1  1  0.24423  0.24423  0.75000  1
 Ni  Ni2  1  0.75577  0.75577  0.25000  1
 O  O1  1  0.85396  0.36476  0.78649  1
 O  O2  1  0.14604  0.63524  0.21351  1
 O  O3  1  0.24367  0.48029  0.58934  1
 O  O4  1  0.51971  0.75633  0.08934  1
 O  O5  1  0.36476  0.85396  0.71351  1
 O  O6  1  -0.00000  0.00000  0.50000  1
 O  O7  1  0.12640  0.12640  0.25000  1
 O  O8  1  0.75633  0.51971  0.41066  1
 O  O9  1  0.48029  0.24367  0.91066  1
 O  O10  1  0.87360  0.87360  0.75000  1
 O  O11  1  0.00000  0.00000  0.00000  1
 O  O12  1  0.63524  0.14604  0.28649  1
 Si  Si1  1  0.86415  0.20680  0.36344  1
 Si  Si2  1  0.79320  0.13585  0.86344  1
 Si  Si3  1  0.20680  0.86415  0.13656  1
 Si  Si4  1  0.13585  0.79320  0.63656  1
