CIF file written using JARVIS-Tools package.
data_Li3Ga2
_symmetry_space_group_name_H-M  'R-3m'
_cell_length_a       5.21017
_cell_length_b       5.21017
_cell_length_c       5.21017
_cell_angle_alpha    49.3117
_cell_angle_beta     49.3117
_cell_angle_gamma    49.3118

_symmetry_Int_Tables_number  166
_chemical_formula_structural  Li3Ga2
_chemical_formula_sum  Li3Ga2
_cell_volume  74.7199376874831
_cell_formula_units_Z  1
loop_
  _symmetry_equiv_pos_site_id
 _symmetry_equiv_pos_as_xyz
 1  'x, y, z'
loop_
 _atom_site_type_symbol
 _atom_site_label
 _atom_site_symmetry_multiplicity
 _atom_site_fract_x
 _atom_site_fract_y
 _atom_site_fract_z
 _atom_site_fract_occupancy
 Ga  Ga1  1  0.20244  0.20244  0.20244  1
 Ga  Ga2  1  0.79756  0.79756  0.79756  1
 Li  Li1  1  0.59634  0.59634  0.59634  1
 Li  Li2  1  0.40366  0.40366  0.40366  1
 Li  Li3  1  0.00000  0.00000  0.00000  1
