CIF file written using JARVIS-Tools package.
data_Rb2HBrO
_symmetry_space_group_name_H-M  'P2_1/m'
_cell_length_a       6.87246
_cell_length_b       4.45702
_cell_length_c       8.89141
_cell_angle_alpha    90
_cell_angle_beta     108.379
_cell_angle_gamma    90

_symmetry_Int_Tables_number  11
_chemical_formula_structural  Rb2HBrO
_chemical_formula_sum  Rb4H2Br2O2
_cell_volume  258.4585794677959
_cell_formula_units_Z  2
loop_
  _symmetry_equiv_pos_site_id
 _symmetry_equiv_pos_as_xyz
 1  'x, y, z'
loop_
 _atom_site_type_symbol
 _atom_site_label
 _atom_site_symmetry_multiplicity
 _atom_site_fract_x
 _atom_site_fract_y
 _atom_site_fract_z
 _atom_site_fract_occupancy
 Br  Br1  1  0.82243  0.25000  0.69835  1
 Br  Br2  1  0.17757  0.75000  0.30165  1
 H  H1  1  0.84379  0.25000  0.21204  1
 H  H2  1  0.15621  0.75000  0.78796  1
 O  O1  1  0.69384  0.25000  0.17195  1
 O  O2  1  0.30616  0.75000  0.82805  1
 Rb  Rb1  1  0.71729  0.75000  0.96311  1
 Rb  Rb2  1  0.29293  0.25000  0.61509  1
 Rb  Rb3  1  0.70707  0.75000  0.38491  1
 Rb  Rb4  1  0.28271  0.25000  0.03689  1
