CIF file written using JARVIS-Tools package.
data_AuSe
_symmetry_space_group_name_H-M  'C2/m'
_cell_length_a       3.77728
_cell_length_b       6.43363
_cell_length_c       8.5238
_cell_angle_alpha    100.834
_cell_angle_beta     90
_cell_angle_gamma    107.071

_symmetry_Int_Tables_number  12
_chemical_formula_structural  AuSe
_chemical_formula_sum  Au4Se4
_cell_volume  194.15046295096832
_cell_formula_units_Z  4
loop_
  _symmetry_equiv_pos_site_id
 _symmetry_equiv_pos_as_xyz
 1  'x, y, z'
loop_
 _atom_site_type_symbol
 _atom_site_label
 _atom_site_symmetry_multiplicity
 _atom_site_fract_x
 _atom_site_fract_y
 _atom_site_fract_z
 _atom_site_fract_occupancy
 Au  Au1  1  0.03563  0.07126  0.29717  1
 Au  Au2  1  0.96437  0.92874  0.70283  1
 Au  Au3  1  0.35026  0.70053  0.98837  1
 Au  Au4  1  0.64974  0.29947  0.01163  1
 Se  Se1  1  0.39687  0.79375  0.28197  1
 Se  Se2  1  0.67379  0.34757  0.30549  1
 Se  Se3  1  0.32621  0.65243  0.69451  1
 Se  Se4  1  0.60313  0.20625  0.71803  1
