CIF file written using JARVIS-Tools package.
data_Ca2BiSbO6
_symmetry_space_group_name_H-M  'P2_1/m'
_cell_length_a       5.7512
_cell_length_b       8.18732
_cell_length_c       5.96312
_cell_angle_alpha    90
_cell_angle_beta     90.5777
_cell_angle_gamma    90

_symmetry_Int_Tables_number  11
_chemical_formula_structural  Ca2BiSbO6
_chemical_formula_sum  Ca4Bi2Sb2O2
_cell_volume  280.77098275413096
_cell_formula_units_Z  2
loop_
  _symmetry_equiv_pos_site_id
 _symmetry_equiv_pos_as_xyz
 1  'x, y, z'
loop_
 _atom_site_type_symbol
 _atom_site_label
 _atom_site_symmetry_multiplicity
 _atom_site_fract_x
 _atom_site_fract_y
 _atom_site_fract_z
 _atom_site_fract_occupancy
 Bi  Bi1  1  0.50000  0.50000  0.00000  1
 Bi  Bi2  1  0.50000  0.00000  0.00000  1
 Ca  Ca1  1  0.49204  0.25000  0.55668  1
 Ca  Ca2  1  0.50796  0.75000  0.44332  1
 Ca  Ca3  1  0.00736  0.25000  0.05379  1
 Ca  Ca4  1  0.99264  0.75000  0.94621  1
 O  O1  1  0.71021  0.56130  0.66492  1
 O  O2  1  0.88280  0.25000  0.44297  1
 O  O3  1  0.28979  0.06130  0.33508  1
 O  O4  1  0.15844  0.44079  0.78850  1
 O  O5  1  0.84156  0.94079  0.21150  1
 O  O6  1  0.15844  0.05921  0.78850  1
 O  O7  1  0.64179  0.25000  0.92231  1
 O  O8  1  0.71021  0.93870  0.66492  1
 O  O9  1  0.84156  0.55921  0.21150  1
 O  O10  1  0.28979  0.43870  0.33508  1
 O  O11  1  0.11720  0.75000  0.55703  1
 O  O12  1  0.35821  0.75000  0.07769  1
 Sb  Sb1  1  0.00000  0.00000  0.50000  1
 Sb  Sb2  1  0.00000  0.50000  0.50000  1
