CIF file written using JARVIS-Tools package.
data_LiCa2Ag
_symmetry_space_group_name_H-M  'C2/m'
_cell_length_a       17.603
_cell_length_b       8.50187
_cell_length_c       9.85644
_cell_angle_alpha    20.6496
_cell_angle_beta     15.2835
_cell_angle_gamma    17.7939

_symmetry_Int_Tables_number  12
_chemical_formula_structural  LiCa2Ag
_chemical_formula_sum  LiCa2Ag
_cell_volume  116.06180736973883
_cell_formula_units_Z  1
loop_
  _symmetry_equiv_pos_site_id
 _symmetry_equiv_pos_as_xyz
 1  'x, y, z'
loop_
 _atom_site_type_symbol
 _atom_site_label
 _atom_site_symmetry_multiplicity
 _atom_site_fract_x
 _atom_site_fract_y
 _atom_site_fract_z
 _atom_site_fract_occupancy
 Ag  Ag1  1  0.50000  -0.00000  0.00000  1
 Ca  Ca1  1  0.66157  0.82306  0.17694  1
 Ca  Ca2  1  0.33843  0.17694  0.82306  1
 Li  Li1  1  0.00000  0.00000  0.00000  1
