CIF file written using JARVIS-Tools package.
data_Mn3O2F4
_symmetry_space_group_name_H-M  'P-1'
_cell_length_a       5.6189
_cell_length_b       5.72365
_cell_length_c       7.30885
_cell_angle_alpha    73.2561
_cell_angle_beta     73.8867
_cell_angle_gamma    71.5693

_symmetry_Int_Tables_number  2
_chemical_formula_structural  Mn3O2F4
_chemical_formula_sum  Mn6O4F8
_cell_volume  208.9996919788532
_cell_formula_units_Z  2
loop_
  _symmetry_equiv_pos_site_id
 _symmetry_equiv_pos_as_xyz
 1  'x, y, z'
loop_
 _atom_site_type_symbol
 _atom_site_label
 _atom_site_symmetry_multiplicity
 _atom_site_fract_x
 _atom_site_fract_y
 _atom_site_fract_z
 _atom_site_fract_occupancy
 F  F1  1  0.66778  0.29153  0.01617  1
 F  F2  1  0.40398  0.42809  0.37329  1
 F  F3  1  0.07342  0.12187  0.69858  1
 F  F4  1  0.59602  0.57191  0.62671  1
 F  F5  1  0.92658  0.87813  0.30142  1
 F  F6  1  0.39119  0.93896  0.33665  1
 F  F7  1  0.33222  0.70847  0.98383  1
 F  F8  1  0.60881  0.06104  0.66335  1
 Mn  Mn1  1  0.70417  0.67280  0.83864  1
 Mn  Mn2  1  0.00000  0.00000  0.00000  1
 Mn  Mn3  1  -0.00000  0.00000  0.50000  1
 Mn  Mn4  1  0.29583  0.32720  0.16136  1
 Mn  Mn5  1  0.69194  0.63219  0.31563  1
 Mn  Mn6  1  0.30806  0.36781  0.68437  1
 O  O1  1  0.20586  0.23905  0.96336  1
 O  O2  1  0.96921  0.33154  0.33012  1
 O  O3  1  0.79414  0.76095  0.03664  1
 O  O4  1  0.03079  0.66846  0.66988  1
