CIF file written using JARVIS-Tools package.
data_AlTlO3
_symmetry_space_group_name_H-M  'Pnma'
_cell_length_a       5.24381
_cell_length_b       5.35302
_cell_length_c       7.59036
_cell_angle_alpha    90
_cell_angle_beta     90
_cell_angle_gamma    90

_symmetry_Int_Tables_number  62
_chemical_formula_structural  AlTlO3
_chemical_formula_sum  Al4Tl4O2
_cell_volume  213.0630277551655
_cell_formula_units_Z  4
loop_
  _symmetry_equiv_pos_site_id
 _symmetry_equiv_pos_as_xyz
 1  'x, y, z'
loop_
 _atom_site_type_symbol
 _atom_site_label
 _atom_site_symmetry_multiplicity
 _atom_site_fract_x
 _atom_site_fract_y
 _atom_site_fract_z
 _atom_site_fract_occupancy
 Al  Al1  1  0.00000  0.50000  0.00000  1
 Al  Al2  1  0.00000  0.50000  0.50000  1
 Al  Al3  1  0.50000  0.00000  0.00000  1
 Al  Al4  1  0.50000  0.00000  0.50000  1
 O  O1  1  0.09562  0.46634  0.25000  1
 O  O2  1  0.79344  0.79043  0.44931  1
 O  O3  1  0.20656  0.20957  0.94931  1
 O  O4  1  0.29344  0.70957  0.94931  1
 O  O5  1  0.20656  0.20957  0.55069  1
 O  O6  1  0.40438  0.96634  0.25000  1
 O  O7  1  0.59562  0.03366  0.75000  1
 O  O8  1  0.70656  0.29043  0.44931  1
 O  O9  1  0.29344  0.70957  0.55069  1
 O  O10  1  0.79344  0.79043  0.05069  1
 O  O11  1  0.70656  0.29043  0.05069  1
 O  O12  1  0.90438  0.53366  0.75000  1
 Tl  Tl1  1  0.98770  0.03810  0.25000  1
 Tl  Tl2  1  0.51230  0.53810  0.25000  1
 Tl  Tl3  1  0.48770  0.46190  0.75000  1
 Tl  Tl4  1  0.01230  0.96190  0.75000  1
