CIF file written using JARVIS-Tools package.
data_LiFePO4
_symmetry_space_group_name_H-M  'Cc'
_cell_length_a       4.94552
_cell_length_b       4.94571
_cell_length_c       8.43329
_cell_angle_alpha    74.7042
_cell_angle_beta     74.7062
_cell_angle_gamma    60.6483

_symmetry_Int_Tables_number  9
_chemical_formula_structural  LiFePO4
_chemical_formula_sum  Li2Fe2P2O8
_cell_volume  171.1903803337871
_cell_formula_units_Z  2
loop_
  _symmetry_equiv_pos_site_id
 _symmetry_equiv_pos_as_xyz
 1  'x, y, z'
loop_
 _atom_site_type_symbol
 _atom_site_label
 _atom_site_symmetry_multiplicity
 _atom_site_fract_x
 _atom_site_fract_y
 _atom_site_fract_z
 _atom_site_fract_occupancy
 Fe  Fe1  1  0.81092  0.68406  0.75071  1
 Fe  Fe2  1  0.18603  0.30892  0.25069  1
 Li  Li1  1  0.44066  0.57110  0.49453  1
 Li  Li2  1  0.07310  0.93862  0.99457  1
 O  O1  1  0.76540  0.03610  0.84927  1
 O  O2  1  0.46710  0.59467  0.90480  1
 O  O3  1  0.27883  0.41455  0.71644  1
 O  O4  1  0.73416  0.71034  0.52424  1
 O  O5  1  0.53809  0.26341  0.34926  1
 O  O6  1  0.09670  0.96505  0.40474  1
 O  O7  1  0.91640  0.77680  0.21647  1
 O  O8  1  0.21228  0.23221  0.02420  1
 P  P1  1  0.43348  0.31717  0.87380  1
 P  P2  1  0.81914  0.93147  0.37380  1
