CIF file written using JARVIS-Tools package.
data_LiV3CoO10
_symmetry_space_group_name_H-M  'C2'
_cell_length_a       6.57361
_cell_length_b       6.57361
_cell_length_c       4.44985
_cell_angle_alpha    92.1796
_cell_angle_beta     87.8204
_cell_angle_gamma    89.3677

_symmetry_Int_Tables_number  5
_chemical_formula_structural  LiV3CoO10
_chemical_formula_sum  LiV3CoO0
_cell_volume  191.9956304405003
_cell_formula_units_Z  1
loop_
  _symmetry_equiv_pos_site_id
 _symmetry_equiv_pos_as_xyz
 1  'x, y, z'
loop_
 _atom_site_type_symbol
 _atom_site_label
 _atom_site_symmetry_multiplicity
 _atom_site_fract_x
 _atom_site_fract_y
 _atom_site_fract_z
 _atom_site_fract_occupancy
 Co  Co1  1  0.75131  0.25131  0.50000  1
 Li  Li1  1  0.50296  0.00296  0.00000  1
 O  O1  1  0.03250  0.75665  0.29364  1
 O  O2  1  0.27109  0.22584  0.25740  1
 O  O3  1  0.25665  0.53250  0.70636  1
 O  O4  1  0.25934  0.96245  0.74029  1
 O  O5  1  0.46245  0.75934  0.25971  1
 O  O6  1  0.52551  0.23928  0.73833  1
 O  O7  1  0.73928  0.02551  0.26167  1
 O  O8  1  0.74487  0.47840  0.29031  1
 O  O9  1  0.72584  0.77109  0.74260  1
 O  O10  1  0.97840  0.24487  0.70969  1
 V  V1  1  0.24967  0.74967  0.50000  1
 V  V2  1  0.24990  0.25022  0.62297  1
 V  V3  1  0.75022  0.74990  0.37703  1
