CIF file written using JARVIS-Tools package.
data_Li2Si3NiO8
_symmetry_space_group_name_H-M  'P2_1'
_cell_length_a       6.39601
_cell_length_b       8.11406
_cell_length_c       6.71456
_cell_angle_alpha    90
_cell_angle_beta     107.825
_cell_angle_gamma    90

_symmetry_Int_Tables_number  4
_chemical_formula_structural  Li2Si3NiO8
_chemical_formula_sum  Li4Si6Ni2O6
_cell_volume  331.7417527422681
_cell_formula_units_Z  2
loop_
  _symmetry_equiv_pos_site_id
 _symmetry_equiv_pos_as_xyz
 1  'x, y, z'
loop_
 _atom_site_type_symbol
 _atom_site_label
 _atom_site_symmetry_multiplicity
 _atom_site_fract_x
 _atom_site_fract_y
 _atom_site_fract_z
 _atom_site_fract_occupancy
 Li  Li1  1  0.83219  0.68062  0.24499  1
 Li  Li2  1  0.60623  0.18258  0.54587  1
 Li  Li3  1  0.39377  0.68258  0.45413  1
 Li  Li4  1  0.16781  0.18062  0.75501  1
 Ni  Ni1  1  0.00450  0.01427  0.36563  1
 Ni  Ni2  1  -0.00450  0.51427  0.63437  1
 O  O1  1  0.00840  0.26555  0.11238  1
 O  O2  1  0.67968  0.47442  0.04029  1
 O  O3  1  0.38882  0.66668  0.10551  1
 O  O4  1  0.75221  0.90970  0.16082  1
 O  O5  1  0.42138  0.36389  0.25784  1
 O  O6  1  0.20122  0.85949  0.29651  1
 O  O7  1  0.32032  0.97442  0.95971  1
 O  O8  1  0.24143  0.18366  0.49406  1
 O  O9  1  0.87810  0.01245  0.59773  1
 O  O10  1  0.79878  0.35949  0.70349  1
 O  O11  1  0.61118  0.16668  0.89449  1
 O  O12  1  0.24779  0.40970  0.83918  1
 O  O13  1  0.12190  0.51245  0.40227  1
 O  O14  1  0.75857  0.68366  0.50594  1
 O  O15  1  0.57862  0.86389  0.74216  1
 O  O16  1  -0.00840  0.76555  0.88762  1
 Si  Si1  1  0.19469  0.33479  0.32843  1
 Si  Si2  1  0.42311  0.47402  0.04880  1
 Si  Si3  1  0.21710  0.82273  0.06653  1
 Si  Si4  1  0.57689  0.97402  0.95120  1
 Si  Si5  1  0.80531  0.83479  0.67157  1
 Si  Si6  1  0.78290  0.32273  0.93347  1
