CIF file written using JARVIS-Tools package.
data_Li3CrSiCO7
_symmetry_space_group_name_H-M  'P2_1/m'
_cell_length_a       4.96493
_cell_length_b       6.37679
_cell_length_c       8.2659
_cell_angle_alpha    90
_cell_angle_beta     95.1676
_cell_angle_gamma    90

_symmetry_Int_Tables_number  11
_chemical_formula_structural  Li3CrSiCO7
_chemical_formula_sum  Li6Cr2Si2C2O4
_cell_volume  260.6374675027823
_cell_formula_units_Z  2
loop_
  _symmetry_equiv_pos_site_id
 _symmetry_equiv_pos_as_xyz
 1  'x, y, z'
loop_
 _atom_site_type_symbol
 _atom_site_label
 _atom_site_symmetry_multiplicity
 _atom_site_fract_x
 _atom_site_fract_y
 _atom_site_fract_z
 _atom_site_fract_occupancy
 C  C1  1  0.30652  0.25000  0.03293  1
 C  C2  1  0.69348  0.75000  0.96707  1
 Cr  Cr1  1  0.19723  0.25000  0.32100  1
 Cr  Cr2  1  0.80277  0.75000  0.67900  1
 Li  Li1  1  0.21935  0.75000  0.10900  1
 Li  Li2  1  0.75663  0.97132  0.28736  1
 Li  Li3  1  0.75663  0.52868  0.28736  1
 Li  Li4  1  0.24337  0.47132  0.71264  1
 Li  Li5  1  0.24337  0.02868  0.71264  1
 Li  Li6  1  0.78065  0.25000  0.89100  1
 O  O1  1  0.17545  0.55485  0.30103  1
 O  O2  1  0.17545  0.94515  0.30103  1
 O  O3  1  0.94283  0.75000  0.92992  1
 O  O4  1  0.05717  0.25000  0.07008  1
 O  O5  1  0.62869  0.75000  0.11366  1
 O  O6  1  0.48904  0.25000  0.15617  1
 O  O7  1  0.84254  0.25000  0.40339  1
 O  O8  1  0.51096  0.75000  0.84383  1
 O  O9  1  0.38372  0.25000  0.54504  1
 O  O10  1  0.82455  0.44515  0.69897  1
 O  O11  1  0.82455  0.05485  0.69897  1
 O  O12  1  0.61628  0.75000  0.45496  1
 O  O13  1  0.15746  0.75000  0.59661  1
 O  O14  1  0.37131  0.25000  0.88634  1
 Si  Si1  1  0.28158  0.75000  0.42074  1
 Si  Si2  1  0.71842  0.25000  0.57926  1
