CIF file written using JARVIS-Tools package.
data_V3O4F2
_symmetry_space_group_name_H-M  'C2'
_cell_length_a       4.63312
_cell_length_b       4.63312
_cell_length_c       8.9335
_cell_angle_alpha    90.532
_cell_angle_beta     90.532
_cell_angle_gamma    90.0567

_symmetry_Int_Tables_number  5
_chemical_formula_structural  V3O4F2
_chemical_formula_sum  V6O8F4
_cell_volume  191.7480671354399
_cell_formula_units_Z  2
loop_
  _symmetry_equiv_pos_site_id
 _symmetry_equiv_pos_as_xyz
 1  'x, y, z'
loop_
 _atom_site_type_symbol
 _atom_site_label
 _atom_site_symmetry_multiplicity
 _atom_site_fract_x
 _atom_site_fract_y
 _atom_site_fract_z
 _atom_site_fract_occupancy
 F  F1  1  0.80291  0.20803  0.49638  1
 F  F2  1  0.29634  0.29370  0.99592  1
 F  F3  1  0.79197  0.19709  0.83695  1
 F  F4  1  0.70630  0.70366  0.33741  1
 O  O1  1  0.31482  0.30652  0.33643  1
 O  O2  1  0.21241  0.78759  0.16667  1
 O  O3  1  0.19153  0.80948  0.49756  1
 O  O4  1  0.19052  0.80847  0.83577  1
 O  O5  1  0.28998  0.30325  0.66769  1
 O  O6  1  0.69348  0.68518  0.99690  1
 O  O7  1  0.80595  0.19405  0.16667  1
 O  O8  1  0.69675  0.71002  0.66565  1
 V  V1  1  0.45982  0.50910  0.51254  1
 V  V2  1  0.49090  0.54018  0.82080  1
 V  V3  1  0.51332  0.48668  0.16667  1
 V  V4  1  0.01384  0.98616  0.66667  1
 V  V5  1  0.04154  0.01237  0.32018  1
 V  V6  1  0.98763  0.95846  0.01316  1
