CIF file written using JARVIS-Tools package.
data_SnH8N2F6
_symmetry_space_group_name_H-M  'P-3m1'
_cell_length_a       6.06912
_cell_length_b       6.06912
_cell_length_c       4.73202
_cell_angle_alpha    90
_cell_angle_beta     90
_cell_angle_gamma    120

_symmetry_Int_Tables_number  164
_chemical_formula_structural  SnH8N2F6
_chemical_formula_sum  SnH8N2F6
_cell_volume  150.94809630127173
_cell_formula_units_Z  1
loop_
  _symmetry_equiv_pos_site_id
 _symmetry_equiv_pos_as_xyz
 1  'x, y, z'
loop_
 _atom_site_type_symbol
 _atom_site_label
 _atom_site_symmetry_multiplicity
 _atom_site_fract_x
 _atom_site_fract_y
 _atom_site_fract_z
 _atom_site_fract_occupancy
 F  F1  1  0.84175  0.15825  0.76369  1
 F  F2  1  0.15825  0.31650  0.23631  1
 F  F3  1  0.68350  0.84175  0.23631  1
 F  F4  1  0.15825  0.84175  0.23631  1
 F  F5  1  0.31650  0.15825  0.76369  1
 F  F6  1  0.84175  0.68350  0.76369  1
 H  H1  1  0.66667  0.33333  0.08776  1
 H  H2  1  0.75867  0.24133  0.38402  1
 H  H3  1  0.75867  0.51733  0.38402  1
 H  H4  1  0.33333  0.66667  0.91224  1
 H  H5  1  0.24133  0.75867  0.61598  1
 H  H6  1  0.24133  0.48267  0.61598  1
 H  H7  1  0.51733  0.75867  0.61598  1
 H  H8  1  0.48267  0.24133  0.38402  1
 N  N1  1  0.66667  0.33333  0.30624  1
 N  N2  1  0.33333  0.66667  0.69376  1
 Sn  Sn1  1  0.00000  0.00000  0.00000  1
