CIF file written using JARVIS-Tools package.
data_ZnSnO2
_symmetry_space_group_name_H-M  'P-1'
_cell_length_a       3.40244
_cell_length_b       7.97307
_cell_length_c       8.94987
_cell_angle_alpha    91.164
_cell_angle_beta     94.6739
_cell_angle_gamma    91.3313

_symmetry_Int_Tables_number  2
_chemical_formula_structural  ZnSnO2
_chemical_formula_sum  Zn4Sn4O8
_cell_volume  241.85872150547038
_cell_formula_units_Z  4
loop_
  _symmetry_equiv_pos_site_id
 _symmetry_equiv_pos_as_xyz
 1  'x, y, z'
loop_
 _atom_site_type_symbol
 _atom_site_label
 _atom_site_symmetry_multiplicity
 _atom_site_fract_x
 _atom_site_fract_y
 _atom_site_fract_z
 _atom_site_fract_occupancy
 O  O1  1  0.42131  0.40563  0.26307  1
 O  O2  1  0.66718  0.12051  0.76524  1
 O  O3  1  0.30859  0.85129  0.25484  1
 O  O4  1  0.55446  0.56617  0.75701  1
 O  O5  1  0.15232  0.34424  0.93939  1
 O  O6  1  0.18049  0.84953  0.84993  1
 O  O7  1  0.82344  0.62757  0.08069  1
 O  O8  1  0.79528  0.12227  0.17015  1
 Sn  Sn1  1  -0.08496  0.37074  0.68766  1
 Sn  Sn2  1  0.63957  0.83490  0.68254  1
 Sn  Sn3  1  0.33620  0.13690  0.33754  1
 Sn  Sn4  1  0.06072  0.60105  0.33242  1
 Zn  Zn1  1  0.27887  0.61879  0.94840  1
 Zn  Zn2  1  0.69689  0.35301  0.07168  1
 Zn  Zn3  1  0.77850  0.87255  0.13761  1
 Zn  Zn4  1  0.19726  0.09925  0.88247  1
