CIF file written using JARVIS-Tools package.
data_Mn3O2F2
_symmetry_space_group_name_H-M  'P2_1/c'
_cell_length_a       5.7465
_cell_length_b       5.92838
_cell_length_c       6.07999
_cell_angle_alpha    90
_cell_angle_beta     117.603
_cell_angle_gamma    90

_symmetry_Int_Tables_number  14
_chemical_formula_structural  Mn3O2F2
_chemical_formula_sum  Mn6O4F4
_cell_volume  183.55412325894807
_cell_formula_units_Z  2
loop_
  _symmetry_equiv_pos_site_id
 _symmetry_equiv_pos_as_xyz
 1  'x, y, z'
loop_
 _atom_site_type_symbol
 _atom_site_label
 _atom_site_symmetry_multiplicity
 _atom_site_fract_x
 _atom_site_fract_y
 _atom_site_fract_z
 _atom_site_fract_occupancy
 F  F1  1  0.90582  0.34647  0.11515  1
 F  F2  1  0.40582  0.15353  0.11515  1
 F  F3  1  0.59418  0.84647  0.88485  1
 F  F4  1  0.09418  0.65353  0.88485  1
 Mn  Mn1  1  0.50000  0.50000  -0.00000  1
 Mn  Mn2  1  0.00000  0.00000  0.00000  1
 Mn  Mn3  1  0.71644  0.93360  0.34562  1
 Mn  Mn4  1  0.78356  0.43360  0.65438  1
 Mn  Mn5  1  0.21644  0.56640  0.34562  1
 Mn  Mn6  1  0.28356  0.06640  0.65438  1
 O  O1  1  0.57873  0.61936  0.33841  1
 O  O2  1  0.92127  0.11936  0.66159  1
 O  O3  1  0.07873  0.88064  0.33841  1
 O  O4  1  0.42127  0.38064  0.66159  1
