CIF file written using JARVIS-Tools package.
data_SmCrO4
_symmetry_space_group_name_H-M  'I4_1/amd'
_cell_length_a       6.05372
_cell_length_b       6.05372
_cell_length_c       6.05372
_cell_angle_alpha    106.105
_cell_angle_beta     106.105
_cell_angle_gamma    116.437

_symmetry_Int_Tables_number  141
_chemical_formula_structural  SmCrO4
_chemical_formula_sum  Sm2Cr2O8
_cell_volume  168.86778129446924
_cell_formula_units_Z  2
loop_
  _symmetry_equiv_pos_site_id
 _symmetry_equiv_pos_as_xyz
 1  'x, y, z'
loop_
 _atom_site_type_symbol
 _atom_site_label
 _atom_site_symmetry_multiplicity
 _atom_site_fract_x
 _atom_site_fract_y
 _atom_site_fract_z
 _atom_site_fract_occupancy
 Cr  Cr1  1  0.87500  0.12500  0.75000  1
 Cr  Cr2  1  0.12500  0.87500  0.25000  1
 O  O1  1  0.29642  0.22730  0.43088  1
 O  O2  1  0.86553  0.29642  0.56912  1
 O  O3  1  0.22730  0.29642  0.93089  1
 O  O4  1  0.29641  0.86553  0.06911  1
 O  O5  1  0.13447  0.70359  0.43088  1
 O  O6  1  0.70358  0.77270  0.56912  1
 O  O7  1  0.77270  0.70358  0.06911  1
 O  O8  1  0.70358  0.13447  0.93089  1
 Sm  Sm1  1  0.37500  0.62500  0.75000  1
 Sm  Sm2  1  0.62500  0.37500  0.25000  1
