CIF file written using JARVIS-Tools package.
data_LiMnBO3
_symmetry_space_group_name_H-M  'P-1'
_cell_length_a       5.16112
_cell_length_b       5.19793
_cell_length_c       5.94351
_cell_angle_alpha    90.0631
_cell_angle_beta     114.021
_cell_angle_gamma    119.278

_symmetry_Int_Tables_number  2
_chemical_formula_structural  LiMnBO3
_chemical_formula_sum  Li2Mn2B2O6
_cell_volume  122.95976583809002
_cell_formula_units_Z  2
loop_
  _symmetry_equiv_pos_site_id
 _symmetry_equiv_pos_as_xyz
 1  'x, y, z'
loop_
 _atom_site_type_symbol
 _atom_site_label
 _atom_site_symmetry_multiplicity
 _atom_site_fract_x
 _atom_site_fract_y
 _atom_site_fract_z
 _atom_site_fract_occupancy
 B  B1  1  0.81376  0.07510  0.73988  1
 B  B2  1  0.18624  0.92490  0.26012  1
 Li  Li1  1  0.44535  0.37693  0.68036  1
 Li  Li2  1  0.55465  0.62307  0.31964  1
 Mn  Mn1  1  0.16072  0.74799  0.76399  1
 Mn  Mn2  1  0.83928  0.25201  0.23601  1
 O  O1  1  0.04800  0.31150  0.68678  1
 O  O2  1  0.62045  0.12705  0.82165  1
 O  O3  1  0.76000  0.78758  0.70242  1
 O  O4  1  0.24000  0.21242  0.29758  1
 O  O5  1  0.37955  0.87295  0.17835  1
 O  O6  1  0.95200  0.68850  0.31322  1
