CIF file written using JARVIS-Tools package.
data_Li2Co2SnO6
_symmetry_space_group_name_H-M  'Cmce'
_cell_length_a       5.14217
_cell_length_b       5.10719
_cell_length_c       9.83
_cell_angle_alpha    90
_cell_angle_beta     90
_cell_angle_gamma    60.2247

_symmetry_Int_Tables_number  64
_chemical_formula_structural  Li2Co2SnO6
_chemical_formula_sum  Li4Co4Sn2O2
_cell_volume  224.07392542278617
_cell_formula_units_Z  2
loop_
  _symmetry_equiv_pos_site_id
 _symmetry_equiv_pos_as_xyz
 1  'x, y, z'
loop_
 _atom_site_type_symbol
 _atom_site_label
 _atom_site_symmetry_multiplicity
 _atom_site_fract_x
 _atom_site_fract_y
 _atom_site_fract_z
 _atom_site_fract_occupancy
 Co  Co1  1  0.32815  0.33592  0.00000  1
 Co  Co2  1  0.32815  0.83592  0.50000  1
 Co  Co3  1  0.67185  0.16408  0.50000  1
 Co  Co4  1  0.67185  0.66408  0.00000  1
 Li  Li1  1  0.50000  0.17064  0.75000  1
 Li  Li2  1  0.50000  0.32936  0.25000  1
 Li  Li3  1  0.50000  0.67064  0.75000  1
 Li  Li4  1  0.50000  0.82936  0.25000  1
 O  O1  1  0.64065  0.50497  0.39395  1
 O  O2  1  -0.00000  0.35372  0.10255  1
 O  O3  1  0.00000  0.64628  0.89745  1
 O  O4  1  0.35935  0.99503  0.89395  1
 O  O5  1  0.00000  0.14628  0.60255  1
 O  O6  1  0.35935  0.14562  0.39395  1
 O  O7  1  0.64065  0.35438  0.89395  1
 O  O8  1  0.35935  0.64562  0.10605  1
 O  O9  1  0.64065  0.00497  0.10605  1
 O  O10  1  -0.00000  0.85372  0.39745  1
 O  O11  1  0.35935  0.49503  0.60605  1
 O  O12  1  0.64065  0.85438  0.60605  1
 Sn  Sn1  1  -0.00000  0.50000  0.50000  1
 Sn  Sn2  1  0.00000  0.00000  0.00000  1
