CIF file written using JARVIS-Tools package.
data_Ho2CdSe4
_symmetry_space_group_name_H-M  'Fd-3m'
_cell_length_a       8.2731
_cell_length_b       8.2731
_cell_length_c       8.2731
_cell_angle_alpha    60
_cell_angle_beta     60
_cell_angle_gamma    60

_symmetry_Int_Tables_number  227
_chemical_formula_structural  Ho2CdSe4
_chemical_formula_sum  Ho4Cd2Se8
_cell_volume  400.3955932367245
_cell_formula_units_Z  2
loop_
  _symmetry_equiv_pos_site_id
 _symmetry_equiv_pos_as_xyz
 1  'x, y, z'
loop_
 _atom_site_type_symbol
 _atom_site_label
 _atom_site_symmetry_multiplicity
 _atom_site_fract_x
 _atom_site_fract_y
 _atom_site_fract_z
 _atom_site_fract_occupancy
 Cd  Cd1  1  0.12500  0.12500  0.12500  1
 Cd  Cd2  1  0.87500  0.87500  0.87500  1
 Ho  Ho1  1  0.50000  0.50000  0.00000  1
 Ho  Ho2  1  0.50000  0.50000  0.50000  1
 Ho  Ho3  1  0.00000  0.50000  0.50000  1
 Ho  Ho4  1  0.50000  0.00000  0.50000  1
 Se  Se1  1  0.74294  0.74294  0.74294  1
 Se  Se2  1  0.25706  0.25706  0.72881  1
 Se  Se3  1  0.25706  0.72881  0.25706  1
 Se  Se4  1  0.72881  0.25706  0.25706  1
 Se  Se5  1  0.74294  0.27119  0.74294  1
 Se  Se6  1  0.27119  0.74294  0.74294  1
 Se  Se7  1  0.25706  0.25706  0.25706  1
 Se  Se8  1  0.74294  0.74294  0.27119  1
