CIF file written using JARVIS-Tools package.
data_Si2MoO6
_symmetry_space_group_name_H-M  'C2/c'
_cell_length_a       5.36522
_cell_length_b       6.60551
_cell_length_c       6.60551
_cell_angle_alpha    83.7545
_cell_angle_beta     75.339
_cell_angle_gamma    75.3391

_symmetry_Int_Tables_number  15
_chemical_formula_structural  Si2MoO6
_chemical_formula_sum  Si4Mo2O2
_cell_volume  218.85297423953756
_cell_formula_units_Z  2
loop_
  _symmetry_equiv_pos_site_id
 _symmetry_equiv_pos_as_xyz
 1  'x, y, z'
loop_
 _atom_site_type_symbol
 _atom_site_label
 _atom_site_symmetry_multiplicity
 _atom_site_fract_x
 _atom_site_fract_y
 _atom_site_fract_z
 _atom_site_fract_occupancy
 Mo  Mo1  1  0.25000  0.09373  0.90627  1
 Mo  Mo2  1  0.75000  0.90627  0.09373  1
 O  O1  1  0.69740  0.62446  0.10347  1
 O  O2  1  0.45126  0.35916  0.36059  1
 O  O3  1  0.04875  0.63942  0.64082  1
 O  O4  1  0.35032  0.04684  0.20155  1
 O  O5  1  0.95126  0.36059  0.35916  1
 O  O6  1  0.54875  0.64082  0.63942  1
 O  O7  1  0.30258  0.37555  0.89653  1
 O  O8  1  0.14967  0.79846  0.95316  1
 O  O9  1  0.19740  0.10347  0.62446  1
 O  O10  1  0.85033  0.20155  0.04684  1
 O  O11  1  0.64967  0.95316  0.79845  1
 O  O12  1  0.80258  0.89653  0.37555  1
 Si  Si1  1  0.76623  0.78189  0.60739  1
 Si  Si2  1  0.73378  0.39261  0.21811  1
 Si  Si3  1  0.26623  0.60739  0.78189  1
 Si  Si4  1  0.23378  0.21811  0.39261  1
