CIF file written using JARVIS-Tools package.
data_Sr7H12Cl2
_symmetry_space_group_name_H-M  'P-6'
_cell_length_a       9.96032
_cell_length_b       9.96032
_cell_length_c       3.92751
_cell_angle_alpha    90
_cell_angle_beta     90
_cell_angle_gamma    120

_symmetry_Int_Tables_number  174
_chemical_formula_structural  Sr7H12Cl2
_chemical_formula_sum  Sr7H2Cl2
_cell_volume  337.43794867065264
_cell_formula_units_Z  1
loop_
  _symmetry_equiv_pos_site_id
 _symmetry_equiv_pos_as_xyz
 1  'x, y, z'
loop_
 _atom_site_type_symbol
 _atom_site_label
 _atom_site_symmetry_multiplicity
 _atom_site_fract_x
 _atom_site_fract_y
 _atom_site_fract_z
 _atom_site_fract_occupancy
 Cl  Cl1  1  0.33333  0.66667  0.50000  1
 Cl  Cl2  1  0.00000  0.00000  0.00000  1
 H  H1  1  0.71597  0.77293  0.50000  1
 H  H2  1  0.88314  0.44668  0.50000  1
 H  H3  1  0.55332  0.43645  0.50000  1
 H  H4  1  0.56355  0.11686  0.50000  1
 H  H5  1  0.05696  0.28403  0.50000  1
 H  H6  1  0.22707  0.94304  0.50000  1
 H  H7  1  0.78576  0.60994  0.00000  1
 H  H8  1  0.39006  0.17582  0.00000  1
 H  H9  1  0.82418  0.21424  0.00000  1
 H  H10  1  0.30117  0.39318  0.00000  1
 H  H11  1  0.09200  0.69883  0.00000  1
 H  H12  1  0.60682  0.90800  0.00000  1
 Sr  Sr1  1  0.94982  0.73354  0.50000  1
 Sr  Sr2  1  0.26646  0.21628  0.50000  1
 Sr  Sr3  1  0.66667  0.33333  0.00000  1
 Sr  Sr4  1  0.55855  0.63734  0.00000  1
 Sr  Sr5  1  0.07879  0.44145  0.00000  1
 Sr  Sr6  1  0.36266  0.92121  0.00000  1
 Sr  Sr7  1  0.78372  0.05018  0.50000  1
