CIF file written using JARVIS-Tools package.
data_Li2RhAu
_symmetry_space_group_name_H-M  'C2/m'
_cell_length_a       10.9095
_cell_length_b       7.32039
_cell_length_c       7.32124
_cell_angle_alpha    23.4947
_cell_angle_beta     18.3693
_cell_angle_gamma    18.3741

_symmetry_Int_Tables_number  12
_chemical_formula_structural  Li2RhAu
_chemical_formula_sum  Li2RhAu
_cell_volume  57.28154629176761
_cell_formula_units_Z  1
loop_
  _symmetry_equiv_pos_site_id
 _symmetry_equiv_pos_as_xyz
 1  'x, y, z'
loop_
 _atom_site_type_symbol
 _atom_site_label
 _atom_site_symmetry_multiplicity
 _atom_site_fract_x
 _atom_site_fract_y
 _atom_site_fract_z
 _atom_site_fract_occupancy
 Au  Au1  1  0.50000  1.00000  -0.00000  1
 Li  Li1  1  0.73480  0.01331  0.01334  1
 Li  Li2  1  0.26520  0.98669  0.98666  1
 Rh  Rh1  1  0.00000  1.00000  -0.00000  1
