CIF file written using JARVIS-Tools package.
data_K2LiAlH6
_symmetry_space_group_name_H-M  'R-3m'
_cell_length_a       9.60623
_cell_length_b       9.60623
_cell_length_c       9.60623
_cell_angle_alpha    33.6926
_cell_angle_beta     33.6925
_cell_angle_gamma    33.6926

_symmetry_Int_Tables_number  166
_chemical_formula_structural  K2LiAlH6
_chemical_formula_sum  K4Li2Al2H2
_cell_volume  243.03598105486535
_cell_formula_units_Z  2
loop_
  _symmetry_equiv_pos_site_id
 _symmetry_equiv_pos_as_xyz
 1  'x, y, z'
loop_
 _atom_site_type_symbol
 _atom_site_label
 _atom_site_symmetry_multiplicity
 _atom_site_fract_x
 _atom_site_fract_y
 _atom_site_fract_z
 _atom_site_fract_occupancy
 Al  Al1  1  0.50000  0.50000  0.50000  1
 Al  Al2  1  0.00000  0.00000  0.00000  1
 H  H1  1  0.16918  0.60627  0.60627  1
 H  H2  1  0.18978  0.73280  0.18978  1
 H  H3  1  0.73280  0.18978  0.18978  1
 H  H4  1  0.26720  0.81022  0.81022  1
 H  H5  1  0.81022  0.81022  0.26720  1
 H  H6  1  0.81022  0.26720  0.81022  1
 H  H7  1  0.39373  0.39373  0.83082  1
 H  H8  1  0.39373  0.83082  0.39373  1
 H  H9  1  0.60627  0.60627  0.16918  1
 H  H10  1  0.60627  0.16918  0.60627  1
 H  H11  1  0.83082  0.39373  0.39373  1
 H  H12  1  0.18978  0.18978  0.73280  1
 K  K1  1  0.28574  0.28574  0.28574  1
 K  K2  1  0.12721  0.12721  0.12721  1
 K  K3  1  0.87279  0.87279  0.87279  1
 K  K4  1  0.71426  0.71426  0.71426  1
 Li  Li1  1  0.40706  0.40706  0.40706  1
 Li  Li2  1  0.59294  0.59294  0.59294  1
