CIF file written using JARVIS-Tools package.
data_Ba2Ti6N2O11
_symmetry_space_group_name_H-M  'C2/m'
_cell_length_a       3.94593
_cell_length_b       7.85865
_cell_length_c       9.23617
_cell_angle_alpha    81.5474
_cell_angle_beta     90
_cell_angle_gamma    75.46

_symmetry_Int_Tables_number  12
_chemical_formula_structural  Ba2Ti6N2O11
_chemical_formula_sum  Ba2Ti6N2O
_cell_volume  274.0221626550181
_cell_formula_units_Z  1
loop_
  _symmetry_equiv_pos_site_id
 _symmetry_equiv_pos_as_xyz
 1  'x, y, z'
loop_
 _atom_site_type_symbol
 _atom_site_label
 _atom_site_symmetry_multiplicity
 _atom_site_fract_x
 _atom_site_fract_y
 _atom_site_fract_z
 _atom_site_fract_occupancy
 Ba  Ba1  1  0.54579  0.90842  0.76498  1
 Ba  Ba2  1  0.45421  0.09158  0.23502  1
 N  N1  1  0.70328  0.59345  0.42083  1
 N  N2  1  0.29672  0.40655  0.57917  1
 O  O1  1  0.92516  0.14968  0.71163  1
 O  O2  1  0.12666  0.74669  0.61738  1
 O  O3  1  0.16260  0.67479  0.90953  1
 O  O4  1  0.63767  0.72466  0.10940  1
 O  O5  1  0.07484  0.85032  0.28837  1
 O  O6  1  0.24308  0.51385  0.23033  1
 O  O7  1  0.36233  0.27534  0.89060  1
 O  O8  1  0.87334  0.25331  0.38262  1
 O  O9  1  0.75692  0.48615  0.76967  1
 O  O10  1  0.83740  0.32521  0.09047  1
 O  O11  1  0.00000  0.00000  0.00000  1
 Ti  Ti1  1  0.87821  0.24358  0.91251  1
 Ti  Ti2  1  0.82785  0.34430  0.55842  1
 Ti  Ti3  1  0.75734  0.48533  0.24262  1
 Ti  Ti4  1  0.24266  0.51467  0.75738  1
 Ti  Ti5  1  0.17215  0.65570  0.44158  1
 Ti  Ti6  1  0.12179  0.75642  0.08749  1
