CIF file written using JARVIS-Tools package.
data_CaCoO2
_symmetry_space_group_name_H-M  'P2_1/m'
_cell_length_a       3.24503
_cell_length_b       6.93434
_cell_length_c       8.61763
_cell_angle_alpha    81.0815
_cell_angle_beta     90.0005
_cell_angle_gamma    90.0007

_symmetry_Int_Tables_number  11
_chemical_formula_structural  CaCoO2
_chemical_formula_sum  Ca4Co4O8
_cell_volume  191.57031607875686
_cell_formula_units_Z  4
loop_
  _symmetry_equiv_pos_site_id
 _symmetry_equiv_pos_as_xyz
 1  'x, y, z'
loop_
 _atom_site_type_symbol
 _atom_site_label
 _atom_site_symmetry_multiplicity
 _atom_site_fract_x
 _atom_site_fract_y
 _atom_site_fract_z
 _atom_site_fract_occupancy
 Ca  Ca1  1  0.74194  0.75526  0.96503  1
 Ca  Ca2  1  0.24194  0.21653  0.05505  1
 Ca  Ca3  1  0.74195  0.88640  0.34921  1
 Ca  Ca4  1  0.24193  0.08539  0.67087  1
 Co  Co1  1  0.74195  0.41792  0.75971  1
 Co  Co2  1  0.24194  0.65313  0.65050  1
 Co  Co3  1  0.74195  0.31866  0.36958  1
 Co  Co4  1  0.24194  0.55388  0.26037  1
 O  O1  1  0.74195  0.43508  0.15229  1
 O  O2  1  0.74194  0.31384  0.57818  1
 O  O3  1  0.24194  0.65796  0.44190  1
 O  O4  1  0.24193  0.53672  0.86780  1
 O  O5  1  0.74194  0.13900  0.88515  1
 O  O6  1  0.74193  0.84236  0.66561  1
 O  O7  1  0.24195  0.83279  0.13493  1
 O  O8  1  0.24195  0.12944  0.35448  1
