CIF file written using JARVIS-Tools package.
data_FeBr3
_symmetry_space_group_name_H-M  'R-3'
_cell_length_a       6.92804
_cell_length_b       6.92804
_cell_length_c       6.92804
_cell_angle_alpha    52.92
_cell_angle_beta     52.9201
_cell_angle_gamma    52.9201

_symmetry_Int_Tables_number  148
_chemical_formula_structural  FeBr3
_chemical_formula_sum  Fe2Br6
_cell_volume  196.10459656010661
_cell_formula_units_Z  2
loop_
  _symmetry_equiv_pos_site_id
 _symmetry_equiv_pos_as_xyz
 1  'x, y, z'
loop_
 _atom_site_type_symbol
 _atom_site_label
 _atom_site_symmetry_multiplicity
 _atom_site_fract_x
 _atom_site_fract_y
 _atom_site_fract_z
 _atom_site_fract_occupancy
 Br  Br1  1  0.72161  0.43346  0.07601  1
 Br  Br2  1  0.07601  0.72161  0.43346  1
 Br  Br3  1  0.43346  0.07601  0.72161  1
 Br  Br4  1  0.27839  0.56654  0.92399  1
 Br  Br5  1  0.92399  0.27839  0.56654  1
 Br  Br6  1  0.56654  0.92399  0.27839  1
 Fe  Fe1  1  0.33355  0.33355  0.33355  1
 Fe  Fe2  1  0.66645  0.66645  0.66645  1
