CIF file written using JARVIS-Tools package.
data_Li7Ni5O12
_symmetry_space_group_name_H-M  'C2/m'
_cell_length_a       4.95686
_cell_length_b       4.95137
_cell_length_c       9.50849
_cell_angle_alpha    85.0972
_cell_angle_beta     99.8308
_cell_angle_gamma    120.037

_symmetry_Int_Tables_number  12
_chemical_formula_structural  Li7Ni5O12
_chemical_formula_sum  Li7Ni5O2
_cell_volume  199.06241554591742
_cell_formula_units_Z  1
loop_
  _symmetry_equiv_pos_site_id
 _symmetry_equiv_pos_as_xyz
 1  'x, y, z'
loop_
 _atom_site_type_symbol
 _atom_site_label
 _atom_site_symmetry_multiplicity
 _atom_site_fract_x
 _atom_site_fract_y
 _atom_site_fract_z
 _atom_site_fract_occupancy
 Li  Li1  1  0.99742  0.49991  0.00750  1
 Li  Li2  1  0.34512  0.17382  0.00782  1
 Li  Li3  1  0.15488  0.82614  0.49219  1
 Li  Li4  1  0.50249  0.49991  0.49250  1
 Li  Li5  1  0.82870  0.17382  0.49218  1
 Li  Li6  1  0.67126  0.82614  0.00781  1
 Li  Li7  1  0.74997  0.49995  0.25000  1
 Ni  Ni1  1  0.08332  0.16663  0.25000  1
 Ni  Ni2  1  0.91546  0.83093  0.75000  1
 Ni  Ni3  1  0.25005  0.50009  0.75000  1
 Ni  Ni4  1  0.41663  0.83325  0.25000  1
 Ni  Ni5  1  0.58462  0.16924  0.75000  1
 O  O1  1  0.87030  0.49995  0.63240  1
 O  O2  1  0.54812  0.82962  0.64112  1
 O  O3  1  0.21877  0.17068  0.64111  1
 O  O4  1  0.42987  0.14277  0.36256  1
 O  O5  1  0.14351  0.49995  0.36263  1
 O  O6  1  0.71290  0.14277  0.13744  1
 O  O7  1  0.95190  0.17068  0.85889  1
 O  O8  1  0.35644  0.49995  0.13737  1
 O  O9  1  0.62965  0.49995  0.86760  1
 O  O10  1  0.07007  0.85712  0.13743  1
 O  O11  1  0.28150  0.82962  0.85888  1
 O  O12  1  0.78705  0.85712  0.36257  1
