CIF file written using JARVIS-Tools package.
data_BaSrZn2
_symmetry_space_group_name_H-M  'Fm-3m'
_cell_length_a       13.8099
_cell_length_b       9.7646
_cell_length_c       5.63783
_cell_angle_alpha    29.9984
_cell_angle_beta     35.2586
_cell_angle_gamma    19.4692

_symmetry_Int_Tables_number  225
_chemical_formula_structural  BaSrZn2
_chemical_formula_sum  BaSrZn2
_cell_volume  126.68906736020136
_cell_formula_units_Z  1
loop_
  _symmetry_equiv_pos_site_id
 _symmetry_equiv_pos_as_xyz
 1  'x, y, z'
loop_
 _atom_site_type_symbol
 _atom_site_label
 _atom_site_symmetry_multiplicity
 _atom_site_fract_x
 _atom_site_fract_y
 _atom_site_fract_z
 _atom_site_fract_occupancy
 Ba  Ba1  1  0.50000  -0.00000  -0.00000  1
 Sr  Sr1  1  0.00000  0.00000  0.00000  1
 Zn  Zn1  1  0.75001  0.00009  -0.00009  1
 Zn  Zn2  1  0.24999  -0.00009  0.00009  1
