CIF file written using JARVIS-Tools package.
data_SnPd
_symmetry_space_group_name_H-M  'Pnma'
_cell_length_a       3.9546
_cell_length_b       6.23774
_cell_length_c       6.49171
_cell_angle_alpha    90
_cell_angle_beta     90
_cell_angle_gamma    90

_symmetry_Int_Tables_number  62
_chemical_formula_structural  SnPd
_chemical_formula_sum  Sn4Pd4
_cell_volume  160.13592107028924
_cell_formula_units_Z  4
loop_
  _symmetry_equiv_pos_site_id
 _symmetry_equiv_pos_as_xyz
 1  'x, y, z'
loop_
 _atom_site_type_symbol
 _atom_site_label
 _atom_site_symmetry_multiplicity
 _atom_site_fract_x
 _atom_site_fract_y
 _atom_site_fract_z
 _atom_site_fract_occupancy
 Pd  Pd1  1  0.75000  0.99038  0.19048  1
 Pd  Pd2  1  0.25000  0.00962  0.80952  1
 Pd  Pd3  1  0.75000  0.49038  0.30952  1
 Pd  Pd4  1  0.25000  0.50962  0.69048  1
 Sn  Sn1  1  0.75000  0.80680  0.59197  1
 Sn  Sn2  1  0.25000  0.19320  0.40803  1
 Sn  Sn3  1  0.75000  0.30680  0.90803  1
 Sn  Sn4  1  0.25000  0.69320  0.09197  1
