CIF file written using JARVIS-Tools package.
data_Mg10FeO11
_symmetry_space_group_name_H-M  'P-1'
_cell_length_a       5.15862
_cell_length_b       6.65906
_cell_length_c       6.65915
_cell_angle_alpha    107.45
_cell_angle_beta     104.969
_cell_angle_gamma    97.4411

_symmetry_Int_Tables_number  2
_chemical_formula_structural  Mg10FeO11
_chemical_formula_sum  Mg0FeO
_cell_volume  205.43512051877684
_cell_formula_units_Z  1
loop_
  _symmetry_equiv_pos_site_id
 _symmetry_equiv_pos_as_xyz
 1  'x, y, z'
loop_
 _atom_site_type_symbol
 _atom_site_label
 _atom_site_symmetry_multiplicity
 _atom_site_fract_x
 _atom_site_fract_y
 _atom_site_fract_z
 _atom_site_fract_occupancy
 Fe  Fe1  1  0.50000  -0.00000  -0.00000  1
 Mg  Mg1  1  0.13807  0.72880  0.54732  1
 Mg  Mg2  1  0.59081  0.81904  0.35974  1
 Mg  Mg3  1  0.22735  0.54904  0.90909  1
 Mg  Mg4  1  0.67903  0.63783  0.72780  1
 Mg  Mg5  1  0.95504  0.09010  0.82010  1
 Mg  Mg6  1  0.77265  0.45096  0.09091  1
 Mg  Mg7  1  0.86193  0.27120  0.45268  1
 Mg  Mg8  1  0.40919  0.18096  0.64026  1
 Mg  Mg9  1  0.04496  0.90990  0.17990  1
 Mg  Mg10  1  0.32097  0.36217  0.27220  1
 O  O1  1  0.09283  0.81958  0.86428  1
 O  O2  1  0.54574  0.90984  0.68346  1
 O  O3  1  0.90717  0.18042  0.13572  1
 O  O4  1  0.00000  0.00000  0.50000  1
 O  O5  1  0.81803  0.36411  0.77319  1
 O  O6  1  0.45426  0.09016  0.31654  1
 O  O7  1  0.36434  0.27170  0.95586  1
 O  O8  1  0.72748  0.54625  0.40919  1
 O  O9  1  0.63566  0.72830  0.04414  1
 O  O10  1  0.27252  0.45375  0.59081  1
 O  O11  1  0.18197  0.63589  0.22681  1
