CIF file written using JARVIS-Tools package.
data_Li3Mn3SiO8
_symmetry_space_group_name_H-M  'P2/m'
_cell_length_a       5.21572
_cell_length_b       5.59201
_cell_length_c       5.31603
_cell_angle_alpha    90
_cell_angle_beta     113.058
_cell_angle_gamma    90

_symmetry_Int_Tables_number  10
_chemical_formula_structural  Li3Mn3SiO8
_chemical_formula_sum  Li3Mn3SiO8
_cell_volume  142.66267931111568
_cell_formula_units_Z  1
loop_
  _symmetry_equiv_pos_site_id
 _symmetry_equiv_pos_as_xyz
 1  'x, y, z'
loop_
 _atom_site_type_symbol
 _atom_site_label
 _atom_site_symmetry_multiplicity
 _atom_site_fract_x
 _atom_site_fract_y
 _atom_site_fract_z
 _atom_site_fract_occupancy
 Li  Li1  1  0.00000  0.50000  0.00000  1
 Li  Li2  1  0.00000  0.24407  0.50000  1
 Li  Li3  1  0.00000  0.75593  0.50000  1
 Mn  Mn1  1  0.50000  0.24955  -0.00000  1
 Mn  Mn2  1  0.50000  0.75045  -0.00000  1
 Mn  Mn3  1  0.50000  0.50000  0.50000  1
 O  O1  1  0.31120  0.00000  0.73341  1
 O  O2  1  0.72193  0.23694  0.70211  1
 O  O3  1  0.26143  0.50000  0.78672  1
 O  O4  1  0.27807  0.23694  0.29789  1
 O  O5  1  0.72193  0.76306  0.70211  1
 O  O6  1  0.68880  0.00000  0.26659  1
 O  O7  1  0.73857  0.50000  0.21328  1
 O  O8  1  0.27807  0.76306  0.29789  1
 Si  Si1  1  0.50000  0.00000  0.50000  1
