CIF file written using JARVIS-Tools package.
data_Fe3O2F4
_symmetry_space_group_name_H-M  'Pm'
_cell_length_a       4.70622
_cell_length_b       4.7212
_cell_length_c       9.31718
_cell_angle_alpha    89.9998
_cell_angle_beta     90.0006
_cell_angle_gamma    89.6449

_symmetry_Int_Tables_number  6
_chemical_formula_structural  Fe3O2F4
_chemical_formula_sum  Fe6O4F8
_cell_volume  207.01527456489757
_cell_formula_units_Z  2
loop_
  _symmetry_equiv_pos_site_id
 _symmetry_equiv_pos_as_xyz
 1  'x, y, z'
loop_
 _atom_site_type_symbol
 _atom_site_label
 _atom_site_symmetry_multiplicity
 _atom_site_fract_x
 _atom_site_fract_y
 _atom_site_fract_z
 _atom_site_fract_occupancy
 F  F1  1  0.79134  0.79561  0.49678  1
 F  F2  1  0.68650  0.31229  0.33333  1
 F  F3  1  0.71007  0.29421  0.67515  1
 F  F4  1  0.71006  0.29421  0.99152  1
 F  F5  1  0.29480  0.69564  0.33333  1
 F  F6  1  0.21078  0.19663  0.83333  1
 F  F7  1  0.79134  0.79562  0.16988  1
 F  F8  1  0.81105  0.80455  0.83333  1
 Fe  Fe1  1  0.03104  0.98933  0.00918  1
 Fe  Fe2  1  0.46902  0.49071  0.51114  1
 Fe  Fe3  1  0.46902  0.49072  0.15553  1
 Fe  Fe4  1  0.47503  0.54188  0.83333  1
 Fe  Fe5  1  0.01511  0.03149  0.33334  1
 Fe  Fe6  1  0.03104  0.98932  0.65749  1
 O  O1  1  0.19580  0.19586  0.16791  1
 O  O2  1  0.30610  0.69304  0.67218  1
 O  O3  1  0.30610  0.69304  0.99449  1
 O  O4  1  0.19580  0.19585  0.49875  1
