CIF file written using JARVIS-Tools package.
data_CaSnS3
_symmetry_space_group_name_H-M  'R-3'
_cell_length_a       6.72597
_cell_length_b       6.72597
_cell_length_c       7.30673
_cell_angle_alpha    62.5962
_cell_angle_beta     62.5962
_cell_angle_gamma    60

_symmetry_Int_Tables_number  148
_chemical_formula_structural  CaSnS3
_chemical_formula_sum  Ca2Sn2S6
_cell_volume  242.48770677903929
_cell_formula_units_Z  2
loop_
  _symmetry_equiv_pos_site_id
 _symmetry_equiv_pos_as_xyz
 1  'x, y, z'
loop_
 _atom_site_type_symbol
 _atom_site_label
 _atom_site_symmetry_multiplicity
 _atom_site_fract_x
 _atom_site_fract_y
 _atom_site_fract_z
 _atom_site_fract_occupancy
 Ca  Ca1  1  0.64259  0.64259  0.07224  1
 Ca  Ca2  1  0.35741  0.35741  0.92776  1
 S  S1  1  0.03929  0.43879  0.73916  1
 S  S2  1  0.43879  0.78276  0.73916  1
 S  S3  1  0.78276  0.03929  0.73916  1
 S  S4  1  0.96071  0.56121  0.26084  1
 S  S5  1  0.56121  0.21724  0.26084  1
 S  S6  1  0.21724  0.96071  0.26084  1
 Sn  Sn1  1  0.84344  0.84344  0.46966  1
 Sn  Sn2  1  0.15656  0.15656  0.53034  1
