CIF file written using JARVIS-Tools package.
data_MnFe3P4O16
_symmetry_space_group_name_H-M  'Pm'
_cell_length_a       4.81117
_cell_length_b       5.8426
_cell_length_c       9.82881
_cell_angle_alpha    90
_cell_angle_beta     90.4063
_cell_angle_gamma    90

_symmetry_Int_Tables_number  6
_chemical_formula_structural  MnFe3P4O16
_chemical_formula_sum  MnFe3P4O6
_cell_volume  276.27846720291103
_cell_formula_units_Z  1
loop_
  _symmetry_equiv_pos_site_id
 _symmetry_equiv_pos_as_xyz
 1  'x, y, z'
loop_
 _atom_site_type_symbol
 _atom_site_label
 _atom_site_symmetry_multiplicity
 _atom_site_fract_x
 _atom_site_fract_y
 _atom_site_fract_z
 _atom_site_fract_occupancy
 Fe  Fe1  1  0.44140  0.00000  0.22600  1
 Fe  Fe2  1  0.56189  0.50000  0.77582  1
 Fe  Fe3  1  0.94181  0.50000  0.27496  1
 Mn  Mn1  1  0.07330  0.00000  0.72083  1
 O  O1  1  0.16577  0.50000  0.43955  1
 O  O2  1  0.25607  0.29316  0.66558  1
 O  O3  1  0.25607  0.70684  0.66558  1
 O  O4  1  0.74342  0.20609  0.33874  1
 O  O5  1  0.29428  0.00000  0.87668  1
 O  O6  1  0.24019  0.29336  0.16460  1
 O  O7  1  0.20521  0.00000  0.38298  1
 O  O8  1  0.33324  0.50000  0.93845  1
 O  O9  1  0.65385  0.00000  0.05850  1
 O  O10  1  0.75764  0.20717  0.83336  1
 O  O11  1  0.24019  0.70664  0.16460  1
 O  O12  1  0.69897  0.50000  0.12090  1
 O  O13  1  0.79572  0.50000  0.61766  1
 O  O14  1  0.74342  0.79391  0.33874  1
 O  O15  1  0.75764  0.79283  0.83336  1
 O  O16  1  0.84186  0.00000  0.56499  1
 P  P1  1  0.89362  0.00000  0.41042  1
 P  P2  1  0.61099  0.00000  0.90442  1
 P  P3  1  0.38656  0.50000  0.09150  1
 P  P4  1  0.10689  0.50000  0.59183  1
