CIF file written using JARVIS-Tools package.
data_Ba4LiCuC2O10
_symmetry_space_group_name_H-M  'I-42m'
_cell_length_a       5.79671
_cell_length_b       5.79671
_cell_length_c       8.71273
_cell_angle_alpha    109.43
_cell_angle_beta     109.43
_cell_angle_gamma    90

_symmetry_Int_Tables_number  121
_chemical_formula_structural  Ba4LiCuC2O10
_chemical_formula_sum  Ba4LiCuC2O0
_cell_volume  258.34296354285027
_cell_formula_units_Z  1
loop_
  _symmetry_equiv_pos_site_id
 _symmetry_equiv_pos_as_xyz
 1  'x, y, z'
loop_
 _atom_site_type_symbol
 _atom_site_label
 _atom_site_symmetry_multiplicity
 _atom_site_fract_x
 _atom_site_fract_y
 _atom_site_fract_z
 _atom_site_fract_occupancy
 Ba  Ba1  1  0.61836  0.11836  0.23673  1
 Ba  Ba2  1  0.38164  0.88164  0.76327  1
 Ba  Ba3  1  0.11836  0.61836  0.23673  1
 Ba  Ba4  1  0.88164  0.38164  0.76327  1
 C  C1  1  0.72711  0.72711  0.45422  1
 C  C2  1  0.27289  0.27289  0.54578  1
 Cu  Cu1  1  0.00000  0.00000  0.00000  1
 Li  Li1  1  0.50000  0.50000  -0.00000  1
 O  O1  1  0.64183  0.64183  0.28366  1
 O  O2  1  0.22718  0.76920  0.99638  1
 O  O3  1  0.77282  0.77282  0.00362  1
 O  O4  1  0.23080  0.23080  0.00362  1
 O  O5  1  0.62910  0.62910  0.53508  1
 O  O6  1  0.90598  0.90598  0.53508  1
 O  O7  1  0.09402  0.37090  0.46492  1
 O  O8  1  0.35817  0.35817  0.71634  1
 O  O9  1  0.37090  0.09402  0.46492  1
 O  O10  1  0.76920  0.22718  0.99638  1
