CIF file written using JARVIS-Tools package.
data_Li5Mn5Ni2O12
_symmetry_space_group_name_H-M  'C2'
_cell_length_a       5.07346
_cell_length_b       5.07346
_cell_length_c       9.65564
_cell_angle_alpha    85.7018
_cell_angle_beta     94.2982
_cell_angle_gamma    61.3027

_symmetry_Int_Tables_number  5
_chemical_formula_structural  Li5Mn5Ni2O12
_chemical_formula_sum  Li5Mn5Ni2O2
_cell_volume  215.63933833755377
_cell_formula_units_Z  1
loop_
  _symmetry_equiv_pos_site_id
 _symmetry_equiv_pos_as_xyz
 1  'x, y, z'
loop_
 _atom_site_type_symbol
 _atom_site_label
 _atom_site_symmetry_multiplicity
 _atom_site_fract_x
 _atom_site_fract_y
 _atom_site_fract_z
 _atom_site_fract_occupancy
 Li  Li1  1  0.17573  0.65165  0.50864  1
 Li  Li2  1  0.30598  0.86602  0.98608  1
 Li  Li3  1  0.65165  0.17573  0.99136  1
 Li  Li4  1  0.86602  0.30598  0.51392  1
 Li  Li5  1  0.92162  0.92162  0.75000  1
 Mn  Mn1  1  0.07291  0.07291  0.25000  1
 Mn  Mn2  1  0.98683  0.52645  0.99098  1
 Mn  Mn3  1  0.52645  0.98683  0.50902  1
 Mn  Mn4  1  0.41272  0.41272  0.25000  1
 Mn  Mn5  1  0.57984  0.57984  0.75000  1
 Ni  Ni1  1  0.25424  0.25424  0.75000  1
 Ni  Ni2  1  0.74861  0.74861  0.25000  1
 O  O1  1  0.84981  0.63291  0.62376  1
 O  O2  1  0.80420  0.02247  0.38285  1
 O  O3  1  0.93339  0.25544  0.86737  1
 O  O4  1  0.25544  0.93339  0.63263  1
 O  O5  1  0.17853  0.32383  0.38180  1
 O  O6  1  0.32383  0.17853  0.11820  1
 O  O7  1  0.29721  0.55234  0.86783  1
 O  O8  1  0.55234  0.29721  0.63217  1
 O  O9  1  0.42900  0.71828  0.35748  1
 O  O10  1  0.71828  0.42900  0.14252  1
 O  O11  1  0.63291  0.84981  0.87624  1
 O  O12  1  0.02247  0.80420  0.11715  1
