CIF file written using JARVIS-Tools package.
data_MgMoH2O5
_symmetry_space_group_name_H-M  'P-1'
_cell_length_a       5.66802
_cell_length_b       5.84701
_cell_length_c       6.91945
_cell_angle_alpha    100.695
_cell_angle_beta     95.2155
_cell_angle_gamma    106.203

_symmetry_Int_Tables_number  2
_chemical_formula_structural  MgMoH2O5
_chemical_formula_sum  Mg2Mo2H4O0
_cell_volume  213.8954896386634
_cell_formula_units_Z  2
loop_
  _symmetry_equiv_pos_site_id
 _symmetry_equiv_pos_as_xyz
 1  'x, y, z'
loop_
 _atom_site_type_symbol
 _atom_site_label
 _atom_site_symmetry_multiplicity
 _atom_site_fract_x
 _atom_site_fract_y
 _atom_site_fract_z
 _atom_site_fract_occupancy
 H  H1  1  0.07925  0.59781  0.19248  1
 H  H2  1  0.92075  0.40219  0.80752  1
 H  H3  1  0.87321  0.35177  0.20200  1
 H  H4  1  0.12679  0.64823  0.79800  1
 Mg  Mg1  1  0.64080  0.70801  0.19446  1
 Mg  Mg2  1  0.35920  0.29199  0.80554  1
 Mo  Mo1  1  0.74506  0.87905  0.74841  1
 Mo  Mo2  1  0.25494  0.12095  0.25159  1
 O  O1  1  0.09018  0.46975  0.77787  1
 O  O2  1  0.62090  0.64005  0.87719  1
 O  O3  1  0.35422  0.86227  0.16972  1
 O  O4  1  0.37910  0.35995  0.12281  1
 O  O5  1  0.07760  0.96741  0.79014  1
 O  O6  1  0.63800  0.76766  0.49447  1
 O  O7  1  0.92240  0.03259  0.20986  1
 O  O8  1  0.64578  0.13773  0.83028  1
 O  O9  1  0.36200  0.23234  0.50553  1
 O  O10  1  0.90982  0.53025  0.22213  1
