CIF file written using JARVIS-Tools package.
data_K2HgTe
_symmetry_space_group_name_H-M  'C2/m'
_cell_length_a       13.9184
_cell_length_b       9.8076
_cell_length_c       9.80756
_cell_angle_alpha    34.6966
_cell_angle_beta     20.138
_cell_angle_gamma    20.138

_symmetry_Int_Tables_number  12
_chemical_formula_structural  K2HgTe
_chemical_formula_sum  K2HgTe
_cell_volume  137.40750114827605
_cell_formula_units_Z  1
loop_
  _symmetry_equiv_pos_site_id
 _symmetry_equiv_pos_as_xyz
 1  'x, y, z'
loop_
 _atom_site_type_symbol
 _atom_site_label
 _atom_site_symmetry_multiplicity
 _atom_site_fract_x
 _atom_site_fract_y
 _atom_site_fract_z
 _atom_site_fract_occupancy
 Hg  Hg1  1  0.50000  -0.00000  -0.00000  1
 K  K1  1  0.74832  1.00096  1.00096  1
 K  K2  1  0.25167  -0.00096  -0.00096  1
 Te  Te1  1  0.00000  0.00000  0.00000  1
