CIF file written using JARVIS-Tools package.
data_Li4TiCo3O8
_symmetry_space_group_name_H-M  'P1'
_cell_length_a       5.05443
_cell_length_b       5.45444
_cell_length_c       6.34529
_cell_angle_alpha    89.796
_cell_angle_beta     89.827
_cell_angle_gamma    89.884

_symmetry_Int_Tables_number  1
_chemical_formula_structural  Li4TiCo3O8
_chemical_formula_sum  Li4TiCo3O8
_cell_volume  174.93159915391809
_cell_formula_units_Z  1
loop_
  _symmetry_equiv_pos_site_id
 _symmetry_equiv_pos_as_xyz
 1  'x, y, z'
loop_
 _atom_site_type_symbol
 _atom_site_label
 _atom_site_symmetry_multiplicity
 _atom_site_fract_x
 _atom_site_fract_y
 _atom_site_fract_z
 _atom_site_fract_occupancy
 Co  Co1  1  0.01078  0.91110  0.13977  1
 Co  Co2  1  0.48959  0.57814  0.61693  1
 Co  Co3  1  0.99779  0.41856  0.36993  1
 Li  Li1  1  0.00232  0.91626  0.62197  1
 Li  Li2  1  0.50692  0.58265  0.12687  1
 Li  Li3  1  0.00087  0.42182  0.87291  1
 Li  Li4  1  0.50712  0.08317  0.37752  1
 O  O1  1  0.62343  0.92650  0.11511  1
 O  O2  1  0.61040  0.91532  0.63931  1
 O  O3  1  0.11148  0.58844  0.13242  1
 O  O4  1  0.12569  0.57441  0.61085  1
 O  O5  1  0.63187  0.42470  0.38323  1
 O  O6  1  0.61003  0.40366  0.86894  1
 O  O7  1  0.11247  0.09690  0.36685  1
 O  O8  1  0.13366  0.07686  0.88054  1
 Ti  Ti1  1  0.49919  0.08151  0.87684  1
