CIF file written using JARVIS-Tools package.
data_Sr7H12Br2
_symmetry_space_group_name_H-M  'P-6'
_cell_length_a       10.0407
_cell_length_b       10.0407
_cell_length_c       3.99576
_cell_angle_alpha    90
_cell_angle_beta     90
_cell_angle_gamma    120

_symmetry_Int_Tables_number  174
_chemical_formula_structural  Sr7H12Br2
_chemical_formula_sum  Sr7H2Br2
_cell_volume  348.8627256211386
_cell_formula_units_Z  1
loop_
  _symmetry_equiv_pos_site_id
 _symmetry_equiv_pos_as_xyz
 1  'x, y, z'
loop_
 _atom_site_type_symbol
 _atom_site_label
 _atom_site_symmetry_multiplicity
 _atom_site_fract_x
 _atom_site_fract_y
 _atom_site_fract_z
 _atom_site_fract_occupancy
 Br  Br1  1  0.66667  0.33333  0.50000  1
 Br  Br2  1  0.00000  0.00000  0.00000  1
 H  H1  1  0.77297  0.71735  0.50000  1
 H  H2  1  0.44244  0.88061  0.50000  1
 H  H3  1  0.43817  0.55756  0.50000  1
 H  H4  1  0.11939  0.56183  0.50000  1
 H  H5  1  0.28265  0.05563  0.50000  1
 H  H6  1  0.94437  0.22703  0.50000  1
 H  H7  1  0.60808  0.78806  0.00000  1
 H  H8  1  0.17998  0.39192  0.00000  1
 H  H9  1  0.21194  0.82002  0.00000  1
 H  H10  1  0.39514  0.30422  0.00000  1
 H  H11  1  0.69578  0.09092  0.00000  1
 H  H12  1  0.90908  0.60486  0.00000  1
 Sr  Sr1  1  0.72684  0.95037  0.50000  1
 Sr  Sr2  1  0.22353  0.27316  0.50000  1
 Sr  Sr3  1  0.33333  0.66667  0.00000  1
 Sr  Sr4  1  0.64037  0.56605  0.00000  1
 Sr  Sr5  1  0.43395  0.07433  0.00000  1
 Sr  Sr6  1  0.92567  0.35963  0.00000  1
 Sr  Sr7  1  0.04963  0.77647  0.50000  1
