CIF file written using JARVIS-Tools package.
data_Ba2Ti3AlO7
_symmetry_space_group_name_H-M  'Pmmm'
_cell_length_a       3.90899
_cell_length_b       3.97912
_cell_length_c       11.3645
_cell_angle_alpha    90
_cell_angle_beta     90
_cell_angle_gamma    90

_symmetry_Int_Tables_number  47
_chemical_formula_structural  Ba2Ti3AlO7
_chemical_formula_sum  Ba2Ti3AlO7
_cell_volume  176.76686602920233
_cell_formula_units_Z  1
loop_
  _symmetry_equiv_pos_site_id
 _symmetry_equiv_pos_as_xyz
 1  'x, y, z'
loop_
 _atom_site_type_symbol
 _atom_site_label
 _atom_site_symmetry_multiplicity
 _atom_site_fract_x
 _atom_site_fract_y
 _atom_site_fract_z
 _atom_site_fract_occupancy
 Al  Al1  1  0.50000  0.50000  0.50000  1
 Ba  Ba1  1  0.50000  0.50000  0.81740  1
 Ba  Ba2  1  0.50000  0.50000  0.18260  1
 O  O1  1  0.00000  0.50000  -0.00000  1
 O  O2  1  0.50000  0.00000  0.61971  1
 O  O3  1  0.50000  0.00000  0.38029  1
 O  O4  1  0.00000  0.50000  0.61803  1
 O  O5  1  0.00000  0.50000  0.38197  1
 O  O6  1  0.00000  0.00000  0.82698  1
 O  O7  1  0.00000  0.00000  0.17302  1
 Ti  Ti1  1  0.00000  0.00000  0.62462  1
 Ti  Ti2  1  0.00000  0.00000  0.37538  1
 Ti  Ti3  1  0.00000  0.00000  -0.00000  1
