CIF file written using JARVIS-Tools package.
data_Fe3O2F4
_symmetry_space_group_name_H-M  'C2'
_cell_length_a       7.42771
_cell_length_b       5.66084
_cell_length_c       5.66084
_cell_angle_alpha    72.6726
_cell_angle_beta     71.9056
_cell_angle_gamma    71.9056

_symmetry_Int_Tables_number  5
_chemical_formula_structural  Fe3O2F4
_chemical_formula_sum  Fe6O4F8
_cell_volume  209.65274112876676
_cell_formula_units_Z  2
loop_
  _symmetry_equiv_pos_site_id
 _symmetry_equiv_pos_as_xyz
 1  'x, y, z'
loop_
 _atom_site_type_symbol
 _atom_site_label
 _atom_site_symmetry_multiplicity
 _atom_site_fract_x
 _atom_site_fract_y
 _atom_site_fract_z
 _atom_site_fract_occupancy
 F  F1  1  0.00000  0.68473  0.31527  1
 F  F2  1  0.36743  0.42788  0.43080  1
 F  F3  1  0.63257  0.56920  0.57212  1
 F  F4  1  0.30043  0.90361  0.89438  1
 F  F5  1  0.34124  0.36888  0.95607  1
 F  F6  1  0.65876  0.04393  0.63112  1
 F  F7  1  0.00000  0.30373  0.69627  1
 F  F8  1  0.69957  0.10562  0.09639  1
 Fe  Fe1  1  0.83782  0.67742  0.69831  1
 Fe  Fe2  1  0.00000  0.99258  0.00742  1
 Fe  Fe3  1  0.50000  0.97989  0.02011  1
 Fe  Fe4  1  0.16218  0.30169  0.32258  1
 Fe  Fe5  1  0.31324  0.68453  0.64525  1
 Fe  Fe6  1  0.68676  0.35475  0.31547  1
 O  O1  1  0.03350  0.77248  0.77731  1
 O  O2  1  0.66189  0.63972  0.03332  1
 O  O3  1  0.33811  0.96668  0.36028  1
 O  O4  1  0.96650  0.22269  0.22752  1
