CIF file written using JARVIS-Tools package.
data_BaNaTl2
_symmetry_space_group_name_H-M  'Fm-3m'
_cell_length_a       14.0446
_cell_length_b       9.93013
_cell_length_c       9.93012
_cell_angle_alpha    33.5403
_cell_angle_beta     19.4515
_cell_angle_gamma    19.4515

_symmetry_Int_Tables_number  225
_chemical_formula_structural  BaNaTl2
_chemical_formula_sum  BaNaTl2
_cell_volume  132.87552880237166
_cell_formula_units_Z  1
loop_
  _symmetry_equiv_pos_site_id
 _symmetry_equiv_pos_as_xyz
 1  'x, y, z'
loop_
 _atom_site_type_symbol
 _atom_site_label
 _atom_site_symmetry_multiplicity
 _atom_site_fract_x
 _atom_site_fract_y
 _atom_site_fract_z
 _atom_site_fract_occupancy
 Ba  Ba1  1  0.50000  0.00000  0.00000  1
 Na  Na1  1  0.00000  0.00000  0.00000  1
 Tl  Tl1  1  0.74991  -0.00005  -0.00005  1
 Tl  Tl2  1  0.25009  0.00005  0.00005  1
