CIF file written using JARVIS-Tools package.
data_ZnCo2O4
_symmetry_space_group_name_H-M  'Imma'
_cell_length_a       5.85668
_cell_length_b       5.85667
_cell_length_c       5.78998
_cell_angle_alpha    60.376
_cell_angle_beta     60.3759
_cell_angle_gamma    59.425

_symmetry_Int_Tables_number  74
_chemical_formula_structural  ZnCo2O4
_chemical_formula_sum  Zn2Co4O8
_cell_volume  140.5934728052526
_cell_formula_units_Z  2
loop_
  _symmetry_equiv_pos_site_id
 _symmetry_equiv_pos_as_xyz
 1  'x, y, z'
loop_
 _atom_site_type_symbol
 _atom_site_label
 _atom_site_symmetry_multiplicity
 _atom_site_fract_x
 _atom_site_fract_y
 _atom_site_fract_z
 _atom_site_fract_occupancy
 Co  Co1  1  0.99228  0.99228  0.00772  1
 Co  Co2  1  0.25772  0.25772  0.24228  1
 Co  Co3  1  0.62500  0.62500  0.12500  1
 Co  Co4  1  0.62500  0.62500  0.62500  1
 O  O1  1  0.39697  0.39697  0.35645  1
 O  O2  1  0.40272  0.85277  0.37225  1
 O  O3  1  0.39697  0.39697  0.84960  1
 O  O4  1  0.85277  0.40272  0.37225  1
 O  O5  1  0.39723  0.84728  0.87775  1
 O  O6  1  0.84728  0.39723  0.87775  1
 O  O7  1  0.85303  0.85303  0.40040  1
 O  O8  1  0.85303  0.85303  0.89355  1
 Zn  Zn1  1  0.12500  0.62500  0.62500  1
 Zn  Zn2  1  0.62500  0.12500  0.62500  1
