CIF file written using JARVIS-Tools package.
data_LiTi3VO8
_symmetry_space_group_name_H-M  'R-3m'
_cell_length_a       5.94048
_cell_length_b       5.94048
_cell_length_c       5.93473
_cell_angle_alpha    89.9991
_cell_angle_beta     59.9729
_cell_angle_gamma    60.0006

_symmetry_Int_Tables_number  166
_chemical_formula_structural  LiTi3VO8
_chemical_formula_sum  LiTi3VO8
_cell_volume  148.03300011662316
_cell_formula_units_Z  1
loop_
  _symmetry_equiv_pos_site_id
 _symmetry_equiv_pos_as_xyz
 1  'x, y, z'
loop_
 _atom_site_type_symbol
 _atom_site_label
 _atom_site_symmetry_multiplicity
 _atom_site_fract_x
 _atom_site_fract_y
 _atom_site_fract_z
 _atom_site_fract_occupancy
 Li  Li1  1  -0.00000  0.50000  0.50000  1
 O  O1  1  0.46957  0.26522  0.79560  1
 O  O2  1  0.48247  0.75877  0.78944  1
 O  O3  1  0.96928  0.27198  0.78943  1
 O  O4  1  0.96928  0.75875  0.78943  1
 O  O5  1  0.03072  0.24124  0.21057  1
 O  O6  1  0.03072  0.72802  0.21057  1
 O  O7  1  0.51753  0.24123  0.21056  1
 O  O8  1  0.53043  0.73478  0.20440  1
 Ti  Ti1  1  0.00000  0.50000  -0.00000  1
 Ti  Ti2  1  0.50000  0.50000  -0.00000  1
 Ti  Ti3  1  0.50000  -0.00000  -0.00000  1
 V  V1  1  -0.00000  1.00000  -0.00000  1
