CIF file written using JARVIS-Tools package.
data_LiTaWO6
_symmetry_space_group_name_H-M  'Imma'
_cell_length_a       7.34796
_cell_length_b       7.3275
_cell_length_c       7.34796
_cell_angle_alpha    119.908
_cell_angle_beta     119.775
_cell_angle_gamma    60.0921

_symmetry_Int_Tables_number  74
_chemical_formula_structural  LiTaWO6
_chemical_formula_sum  Li2Ta2W2O2
_cell_volume  280.6155127009217
_cell_formula_units_Z  2
loop_
  _symmetry_equiv_pos_site_id
 _symmetry_equiv_pos_as_xyz
 1  'x, y, z'
loop_
 _atom_site_type_symbol
 _atom_site_label
 _atom_site_symmetry_multiplicity
 _atom_site_fract_x
 _atom_site_fract_y
 _atom_site_fract_z
 _atom_site_fract_occupancy
 Li  Li1  1  0.12500  0.62500  0.37500  1
 Li  Li2  1  0.62500  0.62500  0.87500  1
 O  O1  1  0.44258  0.43383  0.93597  1
 O  O2  1  0.44258  0.05956  0.93597  1
 O  O3  1  0.80742  0.81617  0.81403  1
 O  O4  1  0.18597  0.19044  0.19258  1
 O  O5  1  0.18597  0.81617  0.19258  1
 O  O6  1  0.04979  0.45021  0.95021  1
 O  O7  1  0.81969  0.18031  0.18031  1
 O  O8  1  0.20021  0.79979  0.79979  1
 O  O9  1  0.06403  0.43383  0.55742  1
 O  O10  1  0.80742  0.19044  0.81403  1
 O  O11  1  0.43031  0.06969  0.56969  1
 O  O12  1  0.06403  0.05956  0.55742  1
 Ta  Ta1  1  0.12500  0.12500  0.87500  1
 Ta  Ta2  1  0.12500  0.62500  0.87500  1
 W  W1  1  0.62500  0.12500  0.87500  1
 W  W2  1  0.12500  0.12500  0.37500  1
