CIF file written using JARVIS-Tools package.
data_CaBi2O4
_symmetry_space_group_name_H-M  'Cmcm'
_cell_length_a       3.40043
_cell_length_b       5.97788
_cell_length_c       11.3512
_cell_angle_alpha    90
_cell_angle_beta     90
_cell_angle_gamma    106.524

_symmetry_Int_Tables_number  63
_chemical_formula_structural  CaBi2O4
_chemical_formula_sum  Ca2Bi4O8
_cell_volume  221.20944266271388
_cell_formula_units_Z  2
loop_
  _symmetry_equiv_pos_site_id
 _symmetry_equiv_pos_as_xyz
 1  'x, y, z'
loop_
 _atom_site_type_symbol
 _atom_site_label
 _atom_site_symmetry_multiplicity
 _atom_site_fract_x
 _atom_site_fract_y
 _atom_site_fract_z
 _atom_site_fract_occupancy
 Bi  Bi1  1  0.86801  0.73601  0.07756  1
 Bi  Bi2  1  0.13199  0.26399  0.92244  1
 Bi  Bi3  1  0.86801  0.73601  0.42244  1
 Bi  Bi4  1  0.13199  0.26399  0.57756  1
 Ca  Ca1  1  0.38424  0.76848  0.75000  1
 Ca  Ca2  1  0.61576  0.23152  0.25000  1
 O  O1  1  0.22449  0.44898  0.37834  1
 O  O2  1  0.77551  0.55102  0.62166  1
 O  O3  1  0.77551  0.55102  0.87834  1
 O  O4  1  0.22449  0.44898  0.12166  1
 O  O5  1  0.97498  0.94996  0.25000  1
 O  O6  1  0.02502  0.05004  0.75000  1
 O  O7  1  0.50000  0.00000  0.00000  1
 O  O8  1  0.50000  0.00000  0.50000  1
