CIF file written using JARVIS-Tools package.
data_LiCo2NiO6
_symmetry_space_group_name_H-M  'C2/m'
_cell_length_a       2.82317
_cell_length_b       5.7751
_cell_length_c       6.23611
_cell_angle_alpha    103.193
_cell_angle_beta     103.088
_cell_angle_gamma    89.9916

_symmetry_Int_Tables_number  12
_chemical_formula_structural  LiCo2NiO6
_chemical_formula_sum  LiCo2NiO6
_cell_volume  96.27692347898119
_cell_formula_units_Z  1
loop_
  _symmetry_equiv_pos_site_id
 _symmetry_equiv_pos_as_xyz
 1  'x, y, z'
loop_
 _atom_site_type_symbol
 _atom_site_label
 _atom_site_symmetry_multiplicity
 _atom_site_fract_x
 _atom_site_fract_y
 _atom_site_fract_z
 _atom_site_fract_occupancy
 Co  Co1  1  0.33892  0.65546  0.67779  1
 Co  Co2  1  0.99442  0.01121  0.98887  1
 Li  Li1  1  0.66665  0.83333  0.33333  1
 Ni  Ni1  1  0.66667  0.33334  0.33333  1
 O  O1  1  0.17841  0.56013  0.35688  1
 O  O2  1  0.15493  0.10654  0.30978  1
 O  O3  1  0.83755  0.87681  0.67522  1
 O  O4  1  0.82806  0.43956  0.65597  1
 O  O5  1  0.49578  0.78986  0.99145  1
 O  O6  1  0.50527  0.22711  0.01070  1
