CIF file written using JARVIS-Tools package.
data_BaNi2As2O8
_symmetry_space_group_name_H-M  'R-3'
_cell_length_a       8.33786
_cell_length_b       8.33787
_cell_length_c       8.33786
_cell_angle_alpha    34.9276
_cell_angle_beta     34.9276
_cell_angle_gamma    34.9275

_symmetry_Int_Tables_number  148
_chemical_formula_structural  BaNi2As2O8
_chemical_formula_sum  BaNi2As2O8
_cell_volume  169.63577745315845
_cell_formula_units_Z  1
loop_
  _symmetry_equiv_pos_site_id
 _symmetry_equiv_pos_as_xyz
 1  'x, y, z'
loop_
 _atom_site_type_symbol
 _atom_site_label
 _atom_site_symmetry_multiplicity
 _atom_site_fract_x
 _atom_site_fract_y
 _atom_site_fract_z
 _atom_site_fract_occupancy
 As  As1  1  0.57388  0.57388  0.57388  1
 As  As2  1  0.42612  0.42612  0.42612  1
 Ba  Ba1  1  0.00000  0.00000  0.00000  1
 Ni  Ni1  1  0.83106  0.83106  0.83106  1
 Ni  Ni2  1  0.16894  0.16894  0.16894  1
 O  O1  1  0.88103  0.21248  0.56097  1
 O  O2  1  0.21248  0.56097  0.88103  1
 O  O3  1  0.56097  0.88103  0.21248  1
 O  O4  1  0.11897  0.78752  0.43903  1
 O  O5  1  0.78752  0.43903  0.11897  1
 O  O6  1  0.35404  0.35404  0.35404  1
 O  O7  1  0.64596  0.64596  0.64596  1
 O  O8  1  0.43903  0.11897  0.78752  1
