CIF file written using JARVIS-Tools package.
data_V5O12
_symmetry_space_group_name_H-M  'C2'
_cell_length_a       4.9117
_cell_length_b       4.9117
_cell_length_c       9.04211
_cell_angle_alpha    87.4353
_cell_angle_beta     92.5647
_cell_angle_gamma    66.5758

_symmetry_Int_Tables_number  5
_chemical_formula_structural  V5O12
_chemical_formula_sum  V5O2
_cell_volume  199.49520964927956
_cell_formula_units_Z  1
loop_
  _symmetry_equiv_pos_site_id
 _symmetry_equiv_pos_as_xyz
 1  'x, y, z'
loop_
 _atom_site_type_symbol
 _atom_site_label
 _atom_site_symmetry_multiplicity
 _atom_site_fract_x
 _atom_site_fract_y
 _atom_site_fract_z
 _atom_site_fract_occupancy
 O  O1  1  0.38893  0.73793  0.35606  1
 O  O2  1  0.92334  0.27521  0.84697  1
 O  O3  1  0.27521  0.92334  0.65303  1
 O  O4  1  0.19177  0.28271  0.38260  1
 O  O5  1  0.73796  0.08438  0.35951  1
 O  O6  1  0.28271  0.19177  0.11740  1
 O  O7  1  0.53420  0.30854  0.62557  1
 O  O8  1  0.30854  0.53420  0.87443  1
 O  O9  1  0.08438  0.73796  0.14049  1
 O  O10  1  0.69840  0.79833  0.89517  1
 O  O11  1  0.79833  0.69840  0.60483  1
 O  O12  1  0.73793  0.38893  0.14394  1
 V  V1  1  0.61046  0.61046  0.75000  1
 V  V2  1  0.42914  0.42914  0.25000  1
 V  V3  1  0.47692  0.04976  0.53316  1
 V  V4  1  0.04976  0.47692  0.96684  1
 V  V5  1  0.05061  0.05061  0.25000  1
