CIF file written using JARVIS-Tools package.
data_Li3MnO4
_symmetry_space_group_name_H-M  'Cmmm'
_cell_length_a       2.8403
_cell_length_b       4.91689
_cell_length_c       4.91692
_cell_angle_alpha    108.091
_cell_angle_beta     90.0059
_cell_angle_gamma    90.0075

_symmetry_Int_Tables_number  65
_chemical_formula_structural  Li3MnO4
_chemical_formula_sum  Li3MnO4
_cell_volume  65.27250532382344
_cell_formula_units_Z  1
loop_
  _symmetry_equiv_pos_site_id
 _symmetry_equiv_pos_as_xyz
 1  'x, y, z'
loop_
 _atom_site_type_symbol
 _atom_site_label
 _atom_site_symmetry_multiplicity
 _atom_site_fract_x
 _atom_site_fract_y
 _atom_site_fract_z
 _atom_site_fract_occupancy
 Li  Li1  1  0.00456  -0.00000  0.00190  1
 Li  Li2  1  0.50455  0.50002  0.00193  1
 Li  Li3  1  0.00455  0.50003  0.50193  1
 Mn  Mn1  1  0.50422  0.00004  0.50192  1
 O  O1  1  0.00444  0.77301  0.27491  1
 O  O2  1  0.50454  0.22706  0.27487  1
 O  O3  1  0.00459  0.22706  0.72894  1
 O  O4  1  0.50454  0.77301  0.72896  1
