CIF file written using JARVIS-Tools package.
data_Li4FeO4
_symmetry_space_group_name_H-M  'P-1'
_cell_length_a       5.21187
_cell_length_b       5.47508
_cell_length_c       6.72031
_cell_angle_alpha    105.186
_cell_angle_beta     83.899
_cell_angle_gamma    111.549

_symmetry_Int_Tables_number  2
_chemical_formula_structural  Li4FeO4
_chemical_formula_sum  Li8Fe2O8
_cell_volume  172.1233695317934
_cell_formula_units_Z  2
loop_
  _symmetry_equiv_pos_site_id
 _symmetry_equiv_pos_as_xyz
 1  'x, y, z'
loop_
 _atom_site_type_symbol
 _atom_site_label
 _atom_site_symmetry_multiplicity
 _atom_site_fract_x
 _atom_site_fract_y
 _atom_site_fract_z
 _atom_site_fract_occupancy
 Fe  Fe1  1  0.71296  0.45125  0.73279  1
 Fe  Fe2  1  0.28704  0.54875  0.26721  1
 Li  Li1  1  0.74739  0.20057  0.32209  1
 Li  Li2  1  0.23911  0.14004  0.48286  1
 Li  Li3  1  0.25075  0.07864  0.02684  1
 Li  Li4  1  0.25261  0.79943  0.67791  1
 Li  Li5  1  0.82783  0.58213  0.16506  1
 Li  Li6  1  0.74925  0.92136  0.97316  1
 Li  Li7  1  0.76089  0.85996  0.51714  1
 Li  Li8  1  0.17217  0.41787  0.83494  1
 O  O1  1  0.91522  0.25431  0.58964  1
 O  O2  1  0.60035  0.81663  0.23865  1
 O  O3  1  0.08478  0.74569  0.41036  1
 O  O4  1  0.00970  0.29645  0.09829  1
 O  O5  1  0.45503  0.31516  0.27383  1
 O  O6  1  0.54497  0.68484  0.72617  1
 O  O7  1  0.99030  0.70355  0.90171  1
 O  O8  1  0.39965  0.18337  0.76135  1
