CIF file written using JARVIS-Tools package.
data_ErGe
_symmetry_space_group_name_H-M  'Cmcm'
_cell_length_a       3.94495
_cell_length_b       4.20619
_cell_length_c       5.71041
_cell_angle_alpha    111.61
_cell_angle_beta     90
_cell_angle_gamma    90

_symmetry_Int_Tables_number  63
_chemical_formula_structural  ErGe
_chemical_formula_sum  Er2Ge2
_cell_volume  88.09374823217635
_cell_formula_units_Z  2
loop_
  _symmetry_equiv_pos_site_id
 _symmetry_equiv_pos_as_xyz
 1  'x, y, z'
loop_
 _atom_site_type_symbol
 _atom_site_label
 _atom_site_symmetry_multiplicity
 _atom_site_fract_x
 _atom_site_fract_y
 _atom_site_fract_z
 _atom_site_fract_occupancy
 Er  Er1  1  0.25000  0.86265  0.72530  1
 Er  Er2  1  0.75000  0.13735  0.27470  1
 Ge  Ge1  1  0.25000  0.58895  0.17790  1
 Ge  Ge2  1  0.75000  0.41105  0.82210  1
