CIF file written using JARVIS-Tools package.
data_Mg2PbO4
_symmetry_space_group_name_H-M  'Pbam'
_cell_length_a       5.43046
_cell_length_b       9.50663
_cell_length_c       3.18126
_cell_angle_alpha    89.9996
_cell_angle_beta     90.0058
_cell_angle_gamma    90.0002

_symmetry_Int_Tables_number  55
_chemical_formula_structural  Mg2PbO4
_chemical_formula_sum  Mg4Pb2O8
_cell_volume  164.23371340723605
_cell_formula_units_Z  2
loop_
  _symmetry_equiv_pos_site_id
 _symmetry_equiv_pos_as_xyz
 1  'x, y, z'
loop_
 _atom_site_type_symbol
 _atom_site_label
 _atom_site_symmetry_multiplicity
 _atom_site_fract_x
 _atom_site_fract_y
 _atom_site_fract_z
 _atom_site_fract_occupancy
 Mg  Mg1  1  0.05757  0.32319  0.50002  1
 Mg  Mg2  1  0.44243  0.82318  0.50000  1
 Mg  Mg3  1  0.55759  0.17683  0.49998  1
 Mg  Mg4  1  0.94242  0.67683  0.50001  1
 O  O1  1  0.15256  0.78707  0.00001  1
 O  O2  1  0.27088  0.03427  0.50005  1
 O  O3  1  0.22913  0.53427  0.49995  1
 O  O4  1  0.34744  0.28707  -0.00000  1
 O  O5  1  0.65255  0.71292  0.00001  1
 O  O6  1  0.77082  0.46573  0.50003  1
 O  O7  1  0.72918  0.96572  0.49997  1
 O  O8  1  0.84745  0.21293  -0.00002  1
 Pb  Pb1  1  0.00002  0.00000  0.00001  1
 Pb  Pb2  1  0.49998  0.50000  -0.00001  1
