CIF file written using JARVIS-Tools package.
data_Fe6O5F7
_symmetry_space_group_name_H-M  'P1'
_cell_length_a       5.62694
_cell_length_b       5.61367
_cell_length_c       7.1606
_cell_angle_alpha    72.0634
_cell_angle_beta     72.1028
_cell_angle_gamma    72.8689

_symmetry_Int_Tables_number  1
_chemical_formula_structural  Fe6O5F7
_chemical_formula_sum  Fe6O5F7
_cell_volume  199.7260611869208
_cell_formula_units_Z  1
loop_
  _symmetry_equiv_pos_site_id
 _symmetry_equiv_pos_as_xyz
 1  'x, y, z'
loop_
 _atom_site_type_symbol
 _atom_site_label
 _atom_site_symmetry_multiplicity
 _atom_site_fract_x
 _atom_site_fract_y
 _atom_site_fract_z
 _atom_site_fract_occupancy
 F  F1  1  0.68541  0.30761  -0.00303  1
 F  F2  1  0.90614  0.90259  0.30102  1
 F  F3  1  0.41466  0.41556  0.36856  1
 F  F4  1  0.11655  0.10736  0.69350  1
 F  F5  1  0.05034  0.63706  0.66471  1
 F  F6  1  0.37050  0.94856  0.33725  1
 F  F7  1  0.29891  0.69954  -0.00419  1
 Fe  Fe1  1  0.29778  0.32052  0.16310  1
 Fe  Fe2  1  0.98409  -0.00170  0.99732  1
 Fe  Fe3  1  0.98413  0.02721  0.50113  1
 Fe  Fe4  1  0.67151  0.69090  0.82089  1
 Fe  Fe5  1  0.38161  0.32513  0.69258  1
 Fe  Fe6  1  0.67477  0.64351  0.33386  1
 O  O1  1  0.95344  0.37265  0.33049  1
 O  O2  1  0.22382  0.22775  0.96408  1
 O  O3  1  0.76030  0.76032  0.04937  1
 O  O4  1  0.64435  0.04069  0.67063  1
 O  O5  1  0.58170  0.57475  0.61873  1
