CIF file written using JARVIS-Tools package.
data_Mn6OF11
_symmetry_space_group_name_H-M  'Amm2'
_cell_length_a       4.83795
_cell_length_b       4.83795
_cell_length_c       9.87655
_cell_angle_alpha    90
_cell_angle_beta     90
_cell_angle_gamma    88.8462

_symmetry_Int_Tables_number  38
_chemical_formula_structural  Mn6OF11
_chemical_formula_sum  Mn6OF
_cell_volume  231.1205586721451
_cell_formula_units_Z  1
loop_
  _symmetry_equiv_pos_site_id
 _symmetry_equiv_pos_as_xyz
 1  'x, y, z'
loop_
 _atom_site_type_symbol
 _atom_site_label
 _atom_site_symmetry_multiplicity
 _atom_site_fract_x
 _atom_site_fract_y
 _atom_site_fract_z
 _atom_site_fract_occupancy
 F  F1  1  0.70468  0.68542  0.66667  1
 F  F2  1  0.19946  0.80054  0.49943  1
 F  F3  1  0.81421  0.18579  0.49082  1
 F  F4  1  0.29680  0.30874  0.00099  1
 F  F5  1  0.29680  0.30874  0.33234  1
 F  F6  1  0.19946  0.80054  0.83390  1
 F  F7  1  0.69126  0.70320  0.00099  1
 F  F8  1  0.69126  0.70320  0.33234  1
 F  F9  1  0.81421  0.18579  0.84251  1
 F  F10  1  0.77892  0.22108  0.16667  1
 F  F11  1  0.31458  0.29532  0.66667  1
 Mn  Mn1  1  0.50629  0.49371  0.49781  1
 Mn  Mn2  1  0.47287  0.52713  0.16667  1
 Mn  Mn3  1  0.50629  0.49371  0.83552  1
 Mn  Mn4  1  0.00225  0.99775  0.66667  1
 Mn  Mn5  1  0.01025  0.98975  0.32187  1
 Mn  Mn6  1  0.01025  0.98975  0.01146  1
 O  O1  1  0.19014  0.80986  0.16667  1
