CIF file written using JARVIS-Tools package.
data_NaSi
_symmetry_space_group_name_H-M  'C2/c'
_cell_length_a       6.44585
_cell_length_b       6.83449
_cell_length_c       10.3377
_cell_angle_alpha    77.0429
_cell_angle_beta     71.8345
_cell_angle_gamma    61.8639

_symmetry_Int_Tables_number  15
_chemical_formula_structural  NaSi
_chemical_formula_sum  Na8Si8
_cell_volume  379.96340622159227
_cell_formula_units_Z  8
loop_
  _symmetry_equiv_pos_site_id
 _symmetry_equiv_pos_as_xyz
 1  'x, y, z'
loop_
 _atom_site_type_symbol
 _atom_site_label
 _atom_site_symmetry_multiplicity
 _atom_site_fract_x
 _atom_site_fract_y
 _atom_site_fract_z
 _atom_site_fract_occupancy
 Na  Na1  1  0.72739  0.18116  0.54733  1
 Na  Na2  1  0.45588  0.31884  0.95267  1
 Na  Na3  1  0.27261  0.81884  0.45267  1
 Na  Na4  1  0.54412  0.68116  0.04733  1
 Na  Na5  1  0.97071  0.85415  0.85624  1
 Na  Na6  1  0.68110  0.64585  0.64376  1
 Na  Na7  1  0.02929  0.14585  0.14376  1
 Na  Na8  1  0.31890  0.35415  0.35624  1
 Si  Si1  1  0.94887  0.33381  0.85918  1
 Si  Si2  1  0.14186  0.16619  0.64082  1
 Si  Si3  1  0.05113  0.66619  0.14082  1
 Si  Si4  1  0.85814  0.83381  0.35918  1
 Si  Si5  1  0.23941  0.44345  0.68895  1
 Si  Si6  1  0.37181  0.05655  0.81105  1
 Si  Si7  1  0.76059  0.55655  0.31105  1
 Si  Si8  1  0.62819  0.94345  0.18895  1
