CIF file written using JARVIS-Tools package.
data_MnFeP2O8
_symmetry_space_group_name_H-M  'P2_1/m'
_cell_length_a       4.67708
_cell_length_b       5.64733
_cell_length_c       9.62572
_cell_angle_alpha    90
_cell_angle_beta     91.6066
_cell_angle_gamma    90

_symmetry_Int_Tables_number  11
_chemical_formula_structural  MnFeP2O8
_chemical_formula_sum  Mn2Fe2P4O6
_cell_volume  254.144184134366
_cell_formula_units_Z  2
loop_
  _symmetry_equiv_pos_site_id
 _symmetry_equiv_pos_as_xyz
 1  'x, y, z'
loop_
 _atom_site_type_symbol
 _atom_site_label
 _atom_site_symmetry_multiplicity
 _atom_site_fract_x
 _atom_site_fract_y
 _atom_site_fract_z
 _atom_site_fract_occupancy
 Fe  Fe1  1  0.94553  0.25000  0.72814  1
 Fe  Fe2  1  0.05447  0.75000  0.27186  1
 Mn  Mn1  1  0.56727  0.25000  0.22985  1
 Mn  Mn2  1  0.43273  0.75000  0.77015  1
 O  O1  1  0.81551  0.75000  0.42847  1
 O  O2  1  0.73935  0.96565  0.66013  1
 O  O3  1  0.73935  0.53435  0.66013  1
 O  O4  1  0.26065  0.03435  0.33987  1
 O  O5  1  0.70611  0.25000  0.88484  1
 O  O6  1  0.78032  0.95952  0.16775  1
 O  O7  1  0.79034  0.25000  0.39210  1
 O  O8  1  0.66621  0.75000  0.93575  1
 O  O9  1  0.33379  0.25000  0.06425  1
 O  O10  1  0.21968  0.04048  0.83225  1
 O  O11  1  0.78032  0.54048  0.16775  1
 O  O12  1  0.29389  0.75000  0.11516  1
 O  O13  1  0.20966  0.75000  0.60790  1
 O  O14  1  0.26065  0.46565  0.33987  1
 O  O15  1  0.21968  0.45952  0.83225  1
 O  O16  1  0.18449  0.25000  0.57153  1
 P  P1  1  0.11664  0.25000  0.41579  1
 P  P2  1  0.38718  0.25000  0.90836  1
 P  P3  1  0.61282  0.75000  0.09164  1
 P  P4  1  0.88336  0.75000  0.58421  1
