CIF file written using JARVIS-Tools package.
data_Zr2SN2
_symmetry_space_group_name_H-M  'P6_3/mmc'
_cell_length_a       3.62973
_cell_length_b       3.62973
_cell_length_c       12.8919
_cell_angle_alpha    90
_cell_angle_beta     90
_cell_angle_gamma    120

_symmetry_Int_Tables_number  194
_chemical_formula_structural  Zr2SN2
_chemical_formula_sum  Zr4S2N4
_cell_volume  147.094598607087
_cell_formula_units_Z  2
loop_
  _symmetry_equiv_pos_site_id
 _symmetry_equiv_pos_as_xyz
 1  'x, y, z'
loop_
 _atom_site_type_symbol
 _atom_site_label
 _atom_site_symmetry_multiplicity
 _atom_site_fract_x
 _atom_site_fract_y
 _atom_site_fract_z
 _atom_site_fract_occupancy
 N  N1  1  0.66667  0.33333  0.56807  1
 N  N2  1  0.33333  0.66667  0.06807  1
 N  N3  1  0.33333  0.66667  0.43193  1
 N  N4  1  0.66667  0.33333  0.93193  1
 S  S1  1  0.00000  0.00000  0.25000  1
 S  S2  1  0.00000  0.00000  0.75000  1
 Zr  Zr1  1  0.33333  0.66667  0.60265  1
 Zr  Zr2  1  0.66667  0.33333  0.10265  1
 Zr  Zr3  1  0.66667  0.33333  0.39735  1
 Zr  Zr4  1  0.33333  0.66667  0.89735  1
