CIF file written using JARVIS-Tools package.
data_Ba2AgBi
_symmetry_space_group_name_H-M  'C2/m'
_cell_length_a       14.5023
_cell_length_b       10.2342
_cell_length_c       10.2342
_cell_angle_alpha    33.9158
_cell_angle_beta     19.6338
_cell_angle_gamma    19.6338

_symmetry_Int_Tables_number  12
_chemical_formula_structural  Ba2AgBi
_chemical_formula_sum  Ba2AgBi
_cell_volume  147.81466054354243
_cell_formula_units_Z  1
loop_
  _symmetry_equiv_pos_site_id
 _symmetry_equiv_pos_as_xyz
 1  'x, y, z'
loop_
 _atom_site_type_symbol
 _atom_site_label
 _atom_site_symmetry_multiplicity
 _atom_site_fract_x
 _atom_site_fract_y
 _atom_site_fract_z
 _atom_site_fract_occupancy
 Ag  Ag1  1  0.00000  0.00000  0.00000  1
 Ba  Ba1  1  0.75378  0.99728  0.99728  1
 Ba  Ba2  1  0.24622  0.00272  0.00272  1
 Bi  Bi1  1  0.50000  0.00000  -0.00000  1
