CIF file written using JARVIS-Tools package.
data_K3Al2As3
_symmetry_space_group_name_H-M  'P2_1/m'
_cell_length_a       7.51617
_cell_length_b       6.01371
_cell_length_c       10.5243
_cell_angle_alpha    90
_cell_angle_beta     110.375
_cell_angle_gamma    90

_symmetry_Int_Tables_number  11
_chemical_formula_structural  K3Al2As3
_chemical_formula_sum  K6Al4As6
_cell_volume  445.9356941173825
_cell_formula_units_Z  2
loop_
  _symmetry_equiv_pos_site_id
 _symmetry_equiv_pos_as_xyz
 1  'x, y, z'
loop_
 _atom_site_type_symbol
 _atom_site_label
 _atom_site_symmetry_multiplicity
 _atom_site_fract_x
 _atom_site_fract_y
 _atom_site_fract_z
 _atom_site_fract_occupancy
 Al  Al1  1  0.02642  -0.00009  0.65892  1
 Al  Al2  1  0.97358  0.49991  0.34108  1
 Al  Al3  1  0.02642  0.50009  0.65892  1
 Al  Al4  1  0.97358  0.00009  0.34108  1
 As  As1  1  0.80853  0.25000  0.46859  1
 As  As2  1  0.19147  0.75000  0.53141  1
 As  As3  1  0.25687  0.25000  0.82279  1
 As  As4  1  0.74313  0.75000  0.17721  1
 As  As5  1  0.16115  0.25000  0.25184  1
 As  As6  1  0.83885  0.75000  0.74816  1
 K  K1  1  0.44220  0.25000  0.57780  1
 K  K2  1  0.13719  0.75000  0.07360  1
 K  K3  1  0.47610  0.75000  0.85191  1
 K  K4  1  0.52390  0.25000  0.14809  1
 K  K5  1  0.55780  0.75000  0.42220  1
 K  K6  1  0.86281  0.25000  0.92640  1
