CIF file written using JARVIS-Tools package.
data_PHF4
_symmetry_space_group_name_H-M  'P2_1/c'
_cell_length_a       4.48558
_cell_length_b       7.88602
_cell_length_c       9.37812
_cell_angle_alpha    90
_cell_angle_beta     118.015
_cell_angle_gamma    90

_symmetry_Int_Tables_number  14
_chemical_formula_structural  PHF4
_chemical_formula_sum  P4H4F6
_cell_volume  292.86584214079215
_cell_formula_units_Z  4
loop_
  _symmetry_equiv_pos_site_id
 _symmetry_equiv_pos_as_xyz
 1  'x, y, z'
loop_
 _atom_site_type_symbol
 _atom_site_label
 _atom_site_symmetry_multiplicity
 _atom_site_fract_x
 _atom_site_fract_y
 _atom_site_fract_z
 _atom_site_fract_occupancy
 F  F1  1  0.26499  0.80056  0.64814  1
 F  F2  1  0.00317  0.34597  0.23747  1
 F  F3  1  -0.00317  0.84597  0.26253  1
 F  F4  1  -0.00317  0.65403  0.76253  1
 F  F5  1  0.56472  0.64027  0.92535  1
 F  F6  1  0.36510  0.08097  0.11404  1
 F  F7  1  0.63490  0.58097  0.38596  1
 F  F8  1  0.00317  0.15403  0.73747  1
 F  F9  1  0.36510  0.41903  0.61404  1
 F  F10  1  0.73501  0.19944  0.35186  1
 F  F11  1  0.26499  0.69944  0.14814  1
 F  F12  1  0.43528  0.14027  0.57465  1
 F  F13  1  0.73501  0.30056  0.85186  1
 F  F14  1  0.43528  0.35973  0.07465  1
 F  F15  1  0.56472  0.85973  0.42535  1
 F  F16  1  0.63490  0.91903  0.88596  1
 H  H1  1  0.83850  0.10975  0.11070  1
 H  H2  1  0.16150  0.60975  0.38930  1
 H  H3  1  0.16150  0.89025  0.88930  1
 H  H4  1  0.83850  0.39025  0.61070  1
 P  P1  1  0.68211  0.21489  0.17488  1
 P  P2  1  0.31789  0.71489  0.32512  1
 P  P3  1  0.31789  0.78511  0.82512  1
 P  P4  1  0.68211  0.28511  0.67488  1
