CIF file written using JARVIS-Tools package.
data_BaV2Ni2O8
_symmetry_space_group_name_H-M  'R-3'
_cell_length_a       8.07367
_cell_length_b       8.07367
_cell_length_c       8.07366
_cell_angle_alpha    36.3091
_cell_angle_beta     36.3092
_cell_angle_gamma    36.3091

_symmetry_Int_Tables_number  148
_chemical_formula_structural  BaV2Ni2O8
_chemical_formula_sum  BaV2Ni2O8
_cell_volume  165.13726862791432
_cell_formula_units_Z  1
loop_
  _symmetry_equiv_pos_site_id
 _symmetry_equiv_pos_as_xyz
 1  'x, y, z'
loop_
 _atom_site_type_symbol
 _atom_site_label
 _atom_site_symmetry_multiplicity
 _atom_site_fract_x
 _atom_site_fract_y
 _atom_site_fract_z
 _atom_site_fract_occupancy
 Ba  Ba1  1  0.00000  0.00000  0.00000  1
 Ni  Ni1  1  0.83070  0.83070  0.83070  1
 Ni  Ni2  1  0.16930  0.16930  0.16930  1
 O  O1  1  0.43732  0.78914  0.11816  1
 O  O2  1  0.78914  0.11816  0.43732  1
 O  O3  1  0.11816  0.43732  0.78914  1
 O  O4  1  0.56268  0.21086  0.88184  1
 O  O5  1  0.21086  0.88184  0.56268  1
 O  O6  1  0.35051  0.35051  0.35051  1
 O  O7  1  0.64949  0.64949  0.64949  1
 O  O8  1  0.88184  0.56268  0.21086  1
 V  V1  1  0.57475  0.57475  0.57475  1
 V  V2  1  0.42525  0.42525  0.42525  1
