CIF file written using JARVIS-Tools package.
data_ZnSb2O6
_symmetry_space_group_name_H-M  'P4_2/mnm'
_cell_length_a       4.72835
_cell_length_b       4.72835
_cell_length_c       9.43477
_cell_angle_alpha    90
_cell_angle_beta     90
_cell_angle_gamma    90

_symmetry_Int_Tables_number  136
_chemical_formula_structural  ZnSb2O6
_chemical_formula_sum  Zn2Sb4O2
_cell_volume  210.9360290428997
_cell_formula_units_Z  2
loop_
  _symmetry_equiv_pos_site_id
 _symmetry_equiv_pos_as_xyz
 1  'x, y, z'
loop_
 _atom_site_type_symbol
 _atom_site_label
 _atom_site_symmetry_multiplicity
 _atom_site_fract_x
 _atom_site_fract_y
 _atom_site_fract_z
 _atom_site_fract_occupancy
 O  O1  1  0.18948  0.81052  0.50000  1
 O  O2  1  0.69845  0.69845  0.67253  1
 O  O3  1  0.30155  0.30155  0.67253  1
 O  O4  1  0.30155  0.30155  0.32747  1
 O  O5  1  0.19845  0.80155  0.17253  1
 O  O6  1  0.69845  0.69845  0.32747  1
 O  O7  1  0.80155  0.19845  0.82747  1
 O  O8  1  0.31052  0.31052  0.00000  1
 O  O9  1  0.19845  0.80155  0.82747  1
 O  O10  1  0.81052  0.18948  0.50000  1
 O  O11  1  0.68948  0.68948  0.00000  1
 O  O12  1  0.80155  0.19845  0.17253  1
 Sb  Sb1  1  0.00000  0.00000  0.66761  1
 Sb  Sb2  1  0.50000  0.50000  0.16761  1
 Sb  Sb3  1  0.00000  0.00000  0.33239  1
 Sb  Sb4  1  0.50000  0.50000  0.83239  1
 Zn  Zn1  1  0.50000  0.50000  0.50000  1
 Zn  Zn2  1  0.00000  0.00000  0.00000  1
