CIF file written using JARVIS-Tools package.
data_Li3BiS3
_symmetry_space_group_name_H-M  'P2_13'
_cell_length_a       8.12844
_cell_length_b       8.12844
_cell_length_c       8.12844
_cell_angle_alpha    90
_cell_angle_beta     90
_cell_angle_gamma    90

_symmetry_Int_Tables_number  198
_chemical_formula_structural  Li3BiS3
_chemical_formula_sum  Li2Bi4S2
_cell_volume  537.0585309077901
_cell_formula_units_Z  4
loop_
  _symmetry_equiv_pos_site_id
 _symmetry_equiv_pos_as_xyz
 1  'x, y, z'
loop_
 _atom_site_type_symbol
 _atom_site_label
 _atom_site_symmetry_multiplicity
 _atom_site_fract_x
 _atom_site_fract_y
 _atom_site_fract_z
 _atom_site_fract_occupancy
 Bi  Bi1  1  0.58089  0.41911  0.91911  1
 Bi  Bi2  1  0.08089  0.08089  0.08089  1
 Bi  Bi3  1  0.41911  0.91911  0.58089  1
 Bi  Bi4  1  0.91911  0.58089  0.41911  1
 Li  Li1  1  0.97760  0.47760  0.02240  1
 Li  Li2  1  0.81546  0.18454  0.68454  1
 Li  Li3  1  0.79575  0.79575  0.79575  1
 Li  Li4  1  0.70425  0.20425  0.29575  1
 Li  Li5  1  0.02240  0.97760  0.47760  1
 Li  Li6  1  0.52240  0.52240  0.52240  1
 Li  Li7  1  0.47760  0.02240  0.97760  1
 Li  Li8  1  0.31546  0.31546  0.31546  1
 Li  Li9  1  0.29575  0.70425  0.20425  1
 Li  Li10  1  0.20425  0.29575  0.70425  1
 Li  Li11  1  0.18454  0.68454  0.81546  1
 Li  Li12  1  0.68454  0.81546  0.18454  1
 S  S1  1  0.74884  0.12194  0.99323  1
 S  S2  1  0.75116  0.87806  0.49323  1
 S  S3  1  0.62194  0.50677  0.25116  1
 S  S4  1  0.49323  0.75116  0.87806  1
 S  S5  1  0.50677  0.25116  0.62194  1
 S  S6  1  0.25116  0.62194  0.50677  1
 S  S7  1  0.24884  0.37806  0.00677  1
 S  S8  1  0.12194  0.99323  0.74884  1
 S  S9  1  0.99323  0.74884  0.12194  1
 S  S10  1  0.87806  0.49323  0.75116  1
 S  S11  1  0.37806  0.00677  0.24884  1
 S  S12  1  0.00677  0.24884  0.37806  1
