CIF file written using JARVIS-Tools package.
data_Ce2SeO2
_symmetry_space_group_name_H-M  'I4/mmm'
_cell_length_a       6.75704
_cell_length_b       6.75704
_cell_length_c       6.75704
_cell_angle_alpha    146.183
_cell_angle_beta     146.183
_cell_angle_gamma    48.5757

_symmetry_Int_Tables_number  139
_chemical_formula_structural  Ce2SeO2
_chemical_formula_sum  Ce2SeO2
_cell_volume  95.15068667049171
_cell_formula_units_Z  1
loop_
  _symmetry_equiv_pos_site_id
 _symmetry_equiv_pos_as_xyz
 1  'x, y, z'
loop_
 _atom_site_type_symbol
 _atom_site_label
 _atom_site_symmetry_multiplicity
 _atom_site_fract_x
 _atom_site_fract_y
 _atom_site_fract_z
 _atom_site_fract_occupancy
 Ce  Ce1  1  0.35187  0.35187  -0.00000  1
 Ce  Ce2  1  0.64813  0.64813  -0.00000  1
 O  O1  1  0.75000  0.25000  0.50000  1
 O  O2  1  0.25000  0.75000  0.50000  1
 Se  Se1  1  0.00000  0.00000  0.00000  1
