CIF file written using JARVIS-Tools package.
data_Li6WO6
_symmetry_space_group_name_H-M  'R-3'
_cell_length_a       5.61468
_cell_length_b       5.61454
_cell_length_c       5.61451
_cell_angle_alpha    60.9009
_cell_angle_beta     60.9037
_cell_angle_gamma    60.913

_symmetry_Int_Tables_number  148
_chemical_formula_structural  Li6WO6
_chemical_formula_sum  Li6WO6
_cell_volume  127.70717431554905
_cell_formula_units_Z  1
loop_
  _symmetry_equiv_pos_site_id
 _symmetry_equiv_pos_as_xyz
 1  'x, y, z'
loop_
 _atom_site_type_symbol
 _atom_site_label
 _atom_site_symmetry_multiplicity
 _atom_site_fract_x
 _atom_site_fract_y
 _atom_site_fract_z
 _atom_site_fract_occupancy
 Li  Li1  1  0.08623  0.71980  0.50964  1
 Li  Li2  1  0.49039  0.91376  0.28018  1
 Li  Li3  1  0.28024  0.49042  0.91382  1
 Li  Li4  1  0.71976  0.50958  0.08618  1
 Li  Li5  1  0.50961  0.08624  0.71982  1
 Li  Li6  1  0.91377  0.28020  0.49036  1
 O  O1  1  0.20475  0.90127  0.64698  1
 O  O2  1  0.35297  0.79516  0.09880  1
 O  O3  1  0.09887  0.35296  0.79525  1
 O  O4  1  0.90113  0.64704  0.20475  1
 O  O5  1  0.64703  0.20484  0.90120  1
 O  O6  1  0.79525  0.09873  0.35302  1
 W  W1  1  0.00000  0.00000  0.00000  1
