CIF file written using JARVIS-Tools package.
data_Fe2Si
_symmetry_space_group_name_H-M  'P-3m1'
_cell_length_a       3.93302
_cell_length_b       3.93302
_cell_length_c       4.84812
_cell_angle_alpha    90
_cell_angle_beta     90
_cell_angle_gamma    120

_symmetry_Int_Tables_number  164
_chemical_formula_structural  Fe2Si
_chemical_formula_sum  Fe4Si2
_cell_volume  64.9467203285657
_cell_formula_units_Z  2
loop_
  _symmetry_equiv_pos_site_id
 _symmetry_equiv_pos_as_xyz
 1  'x, y, z'
loop_
 _atom_site_type_symbol
 _atom_site_label
 _atom_site_symmetry_multiplicity
 _atom_site_fract_x
 _atom_site_fract_y
 _atom_site_fract_z
 _atom_site_fract_occupancy
 Fe  Fe1  1  0.33333  0.66667  0.32176  1
 Fe  Fe2  1  0.66667  0.33333  0.67824  1
 Fe  Fe3  1  0.00000  0.00000  0.50000  1
 Fe  Fe4  1  0.00000  0.00000  0.00000  1
 Si  Si1  1  0.66667  0.33333  0.18214  1
 Si  Si2  1  0.33333  0.66667  0.81786  1
