CIF file written using JARVIS-Tools package.
data_Li4VGa3O8
_symmetry_space_group_name_H-M  'P1'
_cell_length_a       5.03601
_cell_length_b       5.49137
_cell_length_c       6.40172
_cell_angle_alpha    90.0102
_cell_angle_beta     90.0814
_cell_angle_gamma    90.016

_symmetry_Int_Tables_number  1
_chemical_formula_structural  Li4VGa3O8
_chemical_formula_sum  Li4VGa3O8
_cell_volume  177.03693537151824
_cell_formula_units_Z  1
loop_
  _symmetry_equiv_pos_site_id
 _symmetry_equiv_pos_as_xyz
 1  'x, y, z'
loop_
 _atom_site_type_symbol
 _atom_site_label
 _atom_site_symmetry_multiplicity
 _atom_site_fract_x
 _atom_site_fract_y
 _atom_site_fract_z
 _atom_site_fract_occupancy
 Ga  Ga1  1  0.99925  0.58561  0.37346  1
 Ga  Ga2  1  0.49966  0.41514  0.62264  1
 Ga  Ga3  1  0.99859  0.08589  0.12936  1
 Li  Li1  1  0.50227  0.91801  0.37480  1
 Li  Li2  1  0.00488  0.57988  0.87633  1
 Li  Li3  1  0.50260  0.41662  0.12558  1
 Li  Li4  1  0.00472  0.08384  0.62415  1
 O  O1  1  0.12127  0.92916  0.88757  1
 O  O2  1  0.11099  0.91030  0.36594  1
 O  O3  1  0.61057  0.58176  0.86418  1
 O  O4  1  0.62617  0.57525  0.38406  1
 O  O5  1  0.12649  0.42901  0.61386  1
 O  O6  1  0.11073  0.41081  0.13671  1
 O  O7  1  0.61116  0.09108  0.63086  1
 O  O8  1  0.62452  0.07425  0.11858  1
 V  V1  1  0.50372  0.91341  0.87191  1
