CIF file written using JARVIS-Tools package.
data_NdVO4
_symmetry_space_group_name_H-M  'I4_1/amd'
_cell_length_a       6.15081
_cell_length_b       6.1508
_cell_length_c       6.15081
_cell_angle_alpha    106.138
_cell_angle_beta     106.138
_cell_angle_gamma    116.365

_symmetry_Int_Tables_number  141
_chemical_formula_structural  NdVO4
_chemical_formula_sum  Nd2V2O8
_cell_volume  177.16466435687693
_cell_formula_units_Z  2
loop_
  _symmetry_equiv_pos_site_id
 _symmetry_equiv_pos_as_xyz
 1  'x, y, z'
loop_
 _atom_site_type_symbol
 _atom_site_label
 _atom_site_symmetry_multiplicity
 _atom_site_fract_x
 _atom_site_fract_y
 _atom_site_fract_z
 _atom_site_fract_occupancy
 Nd  Nd1  1  0.87500  0.12500  0.75000  1
 Nd  Nd2  1  0.12500  0.87500  0.25000  1
 O  O1  1  0.79487  0.36432  0.06945  1
 O  O2  1  0.79487  0.72542  0.43055  1
 O  O3  1  0.63568  0.20513  0.43055  1
 O  O4  1  0.20513  0.27458  0.56945  1
 O  O5  1  0.20513  0.63568  0.93055  1
 O  O6  1  0.27458  0.20513  0.06945  1
 O  O7  1  0.72542  0.79487  0.93055  1
 O  O8  1  0.36432  0.79487  0.56945  1
 V  V1  1  0.62500  0.37500  0.25000  1
 V  V2  1  0.37500  0.62500  0.75000  1
