CIF file written using JARVIS-Tools package.
data_PbICl
_symmetry_space_group_name_H-M  'Pnma'
_cell_length_a       4.64414
_cell_length_b       8.1826
_cell_length_c       9.66692
_cell_angle_alpha    90
_cell_angle_beta     90
_cell_angle_gamma    90

_symmetry_Int_Tables_number  62
_chemical_formula_structural  PbICl
_chemical_formula_sum  Pb4I4Cl4
_cell_volume  367.35414689327877
_cell_formula_units_Z  4
loop_
  _symmetry_equiv_pos_site_id
 _symmetry_equiv_pos_as_xyz
 1  'x, y, z'
loop_
 _atom_site_type_symbol
 _atom_site_label
 _atom_site_symmetry_multiplicity
 _atom_site_fract_x
 _atom_site_fract_y
 _atom_site_fract_z
 _atom_site_fract_occupancy
 Cl  Cl1  1  0.75000  0.63985  0.43859  1
 Cl  Cl2  1  0.25000  0.86015  0.93859  1
 Cl  Cl3  1  0.75000  0.13985  0.06141  1
 Cl  Cl4  1  0.25000  0.36015  0.56141  1
 I  I1  1  0.25000  0.46800  0.16997  1
 I  I2  1  0.75000  0.03200  0.66997  1
 I  I3  1  0.25000  0.96800  0.33003  1
 I  I4  1  0.75000  0.53200  0.83003  1
 Pb  Pb1  1  0.25000  0.71753  0.61640  1
 Pb  Pb2  1  0.75000  0.28247  0.38360  1
 Pb  Pb3  1  0.25000  0.21753  0.88360  1
 Pb  Pb4  1  0.75000  0.78247  0.11640  1
