CIF file written using JARVIS-Tools package.
data_Lu6WO12
_symmetry_space_group_name_H-M  'R-3'
_cell_length_a       6.31007
_cell_length_b       6.31007
_cell_length_c       6.31007
_cell_angle_alpha    98.8052
_cell_angle_beta     98.8052
_cell_angle_gamma    98.8052

_symmetry_Int_Tables_number  148
_chemical_formula_structural  Lu6WO12
_chemical_formula_sum  Lu6WO2
_cell_volume  241.32006078760153
_cell_formula_units_Z  1
loop_
  _symmetry_equiv_pos_site_id
 _symmetry_equiv_pos_as_xyz
 1  'x, y, z'
loop_
 _atom_site_type_symbol
 _atom_site_label
 _atom_site_symmetry_multiplicity
 _atom_site_fract_x
 _atom_site_fract_y
 _atom_site_fract_z
 _atom_site_fract_occupancy
 Lu  Lu1  1  0.14380  0.31925  0.61109  1
 Lu  Lu2  1  0.38891  0.85620  0.68075  1
 Lu  Lu3  1  0.31925  0.61109  0.14380  1
 Lu  Lu4  1  0.68075  0.38891  0.85620  1
 Lu  Lu5  1  0.61109  0.14380  0.31925  1
 Lu  Lu6  1  0.85620  0.68075  0.38891  1
 O  O1  1  0.03615  0.91834  0.69862  1
 O  O2  1  0.08166  0.30138  0.96385  1
 O  O3  1  0.91834  0.69862  0.03615  1
 O  O4  1  0.30138  0.96385  0.08166  1
 O  O5  1  0.17733  0.58844  0.42765  1
 O  O6  1  0.58844  0.42765  0.17733  1
 O  O7  1  0.57235  0.82267  0.41156  1
 O  O8  1  0.41156  0.57235  0.82267  1
 O  O9  1  0.69862  0.03615  0.91834  1
 O  O10  1  0.82267  0.41156  0.57235  1
 O  O11  1  0.42765  0.17733  0.58844  1
 O  O12  1  0.96385  0.08166  0.30138  1
 W  W1  1  0.00000  0.00000  0.00000  1
