CIF file written using JARVIS-Tools package.
data_Na2MnAsCO7
_symmetry_space_group_name_H-M  'P2_1/m'
_cell_length_a       5.31302
_cell_length_b       6.6508
_cell_length_c       9.11942
_cell_angle_alpha    90
_cell_angle_beta     89.8151
_cell_angle_gamma    90

_symmetry_Int_Tables_number  11
_chemical_formula_structural  Na2MnAsCO7
_chemical_formula_sum  Na4Mn2As2C2O4
_cell_volume  322.23990619883824
_cell_formula_units_Z  2
loop_
  _symmetry_equiv_pos_site_id
 _symmetry_equiv_pos_as_xyz
 1  'x, y, z'
loop_
 _atom_site_type_symbol
 _atom_site_label
 _atom_site_symmetry_multiplicity
 _atom_site_fract_x
 _atom_site_fract_y
 _atom_site_fract_z
 _atom_site_fract_occupancy
 As  As1  1  0.30493  0.75000  0.42808  1
 As  As2  1  0.69507  0.25000  0.57192  1
 C  C1  1  0.30254  0.25000  0.07225  1
 C  C2  1  0.69746  0.75000  0.92775  1
 Mn  Mn1  1  0.22866  0.25000  0.34922  1
 Mn  Mn2  1  0.77134  0.75000  0.65078  1
 Na  Na1  1  0.78504  0.49860  0.22119  1
 Na  Na2  1  0.78504  0.00140  0.22119  1
 Na  Na3  1  0.21496  0.50140  0.77881  1
 Na  Na4  1  0.21496  0.99860  0.77881  1
 O  O1  1  0.70421  0.75000  0.06539  1
 O  O2  1  0.91089  0.75000  0.84964  1
 O  O3  1  0.50248  0.25000  0.15185  1
 O  O4  1  0.22610  0.95542  0.32415  1
 O  O5  1  0.22610  0.54458  0.32415  1
 O  O6  1  0.08911  0.25000  0.15036  1
 O  O7  1  0.77390  0.04458  0.67585  1
 O  O8  1  0.36749  0.25000  0.54578  1
 O  O9  1  0.16233  0.75000  0.59559  1
 O  O10  1  0.77390  0.45542  0.67585  1
 O  O11  1  0.83767  0.25000  0.40441  1
 O  O12  1  0.49752  0.75000  0.84815  1
 O  O13  1  0.63251  0.75000  0.45422  1
 O  O14  1  0.29579  0.25000  0.93461  1
