CIF file written using JARVIS-Tools package.
data_KAg2SbS4
_symmetry_space_group_name_H-M  'I-42m'
_cell_length_a       6.4709
_cell_length_b       6.47091
_cell_length_c       6.47091
_cell_angle_alpha    97.9353
_cell_angle_beta     115.529
_cell_angle_gamma    115.529

_symmetry_Int_Tables_number  121
_chemical_formula_structural  KAg2SbS4
_chemical_formula_sum  KAg2SbS4
_cell_volume  202.43422379217364
_cell_formula_units_Z  1
loop_
  _symmetry_equiv_pos_site_id
 _symmetry_equiv_pos_as_xyz
 1  'x, y, z'
loop_
 _atom_site_type_symbol
 _atom_site_label
 _atom_site_symmetry_multiplicity
 _atom_site_fract_x
 _atom_site_fract_y
 _atom_site_fract_z
 _atom_site_fract_occupancy
 Ag  Ag1  1  0.50000  0.25000  0.75000  1
 Ag  Ag2  1  0.50000  0.75000  0.25000  1
 K  K1  1  0.00000  0.00000  0.00000  1
 S  S1  1  -0.00000  0.45889  0.86088  1
 S  S2  1  0.59802  0.13912  0.13912  1
 S  S3  1  0.40198  0.54111  0.54111  1
 S  S4  1  -0.00000  0.86088  0.45889  1
 Sb  Sb1  1  0.00000  0.50000  0.50000  1
