CIF file written using JARVIS-Tools package.
data_SmAs2Au
_symmetry_space_group_name_H-M  'Pnma'
_cell_length_a       4.07214
_cell_length_b       4.10822
_cell_length_c       20.5283
_cell_angle_alpha    90
_cell_angle_beta     90
_cell_angle_gamma    90

_symmetry_Int_Tables_number  62
_chemical_formula_structural  SmAs2Au
_chemical_formula_sum  Sm4As8Au4
_cell_volume  343.42220220173516
_cell_formula_units_Z  4
loop_
  _symmetry_equiv_pos_site_id
 _symmetry_equiv_pos_as_xyz
 1  'x, y, z'
loop_
 _atom_site_type_symbol
 _atom_site_label
 _atom_site_symmetry_multiplicity
 _atom_site_fract_x
 _atom_site_fract_y
 _atom_site_fract_z
 _atom_site_fract_occupancy
 As  As1  1  0.25000  0.70653  0.00165  1
 As  As2  1  0.75000  0.73137  0.15485  1
 As  As3  1  0.25000  0.23137  0.34515  1
 As  As4  1  0.75000  0.20653  0.49835  1
 As  As5  1  0.25000  0.79347  0.50165  1
 As  As6  1  0.75000  0.76863  0.65485  1
 As  As7  1  0.25000  0.26863  0.84515  1
 As  As8  1  0.75000  0.29347  0.99835  1
 Au  Au1  1  0.25000  0.69996  0.24685  1
 Au  Au2  1  0.75000  0.19996  0.25315  1
 Au  Au3  1  0.25000  0.80004  0.74685  1
 Au  Au4  1  0.75000  0.30004  0.75315  1
 Sm  Sm1  1  0.25000  0.22754  0.11763  1
 Sm  Sm2  1  0.75000  0.72754  0.38237  1
 Sm  Sm3  1  0.25000  0.27246  0.61763  1
 Sm  Sm4  1  0.75000  0.77246  0.88237  1
