CIF file written using JARVIS-Tools package.
data_NaMgH3
_symmetry_space_group_name_H-M  'Pnma'
_cell_length_a       5.34205
_cell_length_b       5.42998
_cell_length_c       7.62723
_cell_angle_alpha    90
_cell_angle_beta     90
_cell_angle_gamma    90

_symmetry_Int_Tables_number  62
_chemical_formula_structural  NaMgH3
_chemical_formula_sum  Na4Mg4H2
_cell_volume  221.24472128733157
_cell_formula_units_Z  4
loop_
  _symmetry_equiv_pos_site_id
 _symmetry_equiv_pos_as_xyz
 1  'x, y, z'
loop_
 _atom_site_type_symbol
 _atom_site_label
 _atom_site_symmetry_multiplicity
 _atom_site_fract_x
 _atom_site_fract_y
 _atom_site_fract_z
 _atom_site_fract_occupancy
 H  H1  1  0.41738  0.02595  0.75000  1
 H  H2  1  0.20446  0.79398  0.04305  1
 H  H3  1  0.08262  0.52595  0.75000  1
 H  H4  1  0.79554  0.20602  0.95695  1
 H  H5  1  0.58262  0.97405  0.25000  1
 H  H6  1  0.29554  0.29398  0.45695  1
 H  H7  1  0.29554  0.29398  0.04305  1
 H  H8  1  0.70446  0.70602  0.54305  1
 H  H9  1  0.70446  0.70602  0.95695  1
 H  H10  1  0.20446  0.79398  0.45695  1
 H  H11  1  0.79554  0.20602  0.54305  1
 H  H12  1  0.91738  0.47405  0.25000  1
 Mg  Mg1  1  0.50000  0.00000  0.50000  1
 Mg  Mg2  1  0.50000  0.00000  0.00000  1
 Mg  Mg3  1  0.00000  0.50000  0.00000  1
 Mg  Mg4  1  0.00000  0.50000  0.50000  1
 Na  Na1  1  0.99420  0.96813  0.75000  1
 Na  Na2  1  0.50580  0.46813  0.75000  1
 Na  Na3  1  0.49420  0.53187  0.25000  1
 Na  Na4  1  0.00580  0.03187  0.25000  1
