CIF file written using JARVIS-Tools package.
data_Ga3NO3
_symmetry_space_group_name_H-M  'C2/m'
_cell_length_a       5.91176
_cell_length_b       5.94721
_cell_length_c       10.3104
_cell_angle_alpha    73.4329
_cell_angle_beta     73.3402
_cell_angle_gamma    60.197

_symmetry_Int_Tables_number  12
_chemical_formula_structural  Ga3NO3
_chemical_formula_sum  Ga2N4O2
_cell_volume  296.88146610572585
_cell_formula_units_Z  4
loop_
  _symmetry_equiv_pos_site_id
 _symmetry_equiv_pos_as_xyz
 1  'x, y, z'
loop_
 _atom_site_type_symbol
 _atom_site_label
 _atom_site_symmetry_multiplicity
 _atom_site_fract_x
 _atom_site_fract_y
 _atom_site_fract_z
 _atom_site_fract_occupancy
 Ga  Ga1  1  0.24977  0.25109  0.25025  1
 Ga  Ga2  1  0.81087  0.31998  0.05917  1
 Ga  Ga3  1  0.74979  0.75110  0.25025  1
 Ga  Ga4  1  0.00110  0.49274  0.50596  1
 Ga  Ga5  1  0.49842  0.00948  0.99454  1
 Ga  Ga6  1  0.68867  0.18223  0.44134  1
 Ga  Ga7  1  0.74978  0.25108  0.75025  1
 Ga  Ga8  1  0.24979  0.75109  0.25025  1
 Ga  Ga9  1  0.30208  0.84279  0.55394  1
 Ga  Ga10  1  0.24976  0.25113  0.75024  1
 Ga  Ga11  1  0.19745  0.65942  0.94656  1
 Ga  Ga12  1  0.74975  0.75110  0.75026  1
 N  N1  1  0.11870  0.61583  0.14769  1
 N  N2  1  0.10341  0.15910  0.63498  1
 N  N3  1  0.38087  0.88636  0.35281  1
 N  N4  1  0.39613  0.34312  0.86551  1
 O  O1  1  0.62175  0.11876  0.12332  1
 O  O2  1  0.13706  0.11875  0.12332  1
 O  O3  1  0.87780  0.38344  0.37718  1
 O  O4  1  0.61548  0.64932  0.12062  1
 O  O5  1  0.63607  0.62948  0.62726  1
 O  O6  1  0.36249  0.38344  0.37718  1
 O  O7  1  0.62681  0.11228  0.63499  1
 O  O8  1  0.88408  0.85288  0.37988  1
 O  O9  1  0.10807  0.62949  0.62726  1
 O  O10  1  0.87271  0.38993  0.86552  1
 O  O11  1  0.86346  0.87273  0.87324  1
 O  O12  1  0.39144  0.87273  0.87324  1
