CIF file written using JARVIS-Tools package.
data_CrHgO4
_symmetry_space_group_name_H-M  'Cmcm'
_cell_length_a       5.28017
_cell_length_b       5.28016
_cell_length_c       7.13929
_cell_angle_alpha    90
_cell_angle_beta     90
_cell_angle_gamma    113.088

_symmetry_Int_Tables_number  63
_chemical_formula_structural  CrHgO4
_chemical_formula_sum  Cr2Hg2O8
_cell_volume  183.10137865259864
_cell_formula_units_Z  2
loop_
  _symmetry_equiv_pos_site_id
 _symmetry_equiv_pos_as_xyz
 1  'x, y, z'
loop_
 _atom_site_type_symbol
 _atom_site_label
 _atom_site_symmetry_multiplicity
 _atom_site_fract_x
 _atom_site_fract_y
 _atom_site_fract_z
 _atom_site_fract_occupancy
 Cr  Cr1  1  0.63170  0.36830  0.25000  1
 Cr  Cr2  1  0.36830  0.63170  0.75000  1
 Hg  Hg1  1  0.00000  0.00000  0.50000  1
 Hg  Hg2  1  0.00000  0.00000  0.00000  1
 O  O1  1  0.71871  0.76113  0.75000  1
 O  O2  1  0.28129  0.23887  0.25000  1
 O  O3  1  0.76113  0.71871  0.25000  1
 O  O4  1  0.23887  0.28129  0.75000  1
 O  O5  1  0.26338  0.73662  0.93905  1
 O  O6  1  0.73662  0.26338  0.43905  1
 O  O7  1  0.73662  0.26338  0.06095  1
 O  O8  1  0.26338  0.73662  0.56095  1
