CIF file written using JARVIS-Tools package.
data_FeNi2S4
_symmetry_space_group_name_H-M  'Imma'
_cell_length_a       6.67182
_cell_length_b       6.67182
_cell_length_c       6.56117
_cell_angle_alpha    60.5471
_cell_angle_beta     60.5471
_cell_angle_gamma    60.7669

_symmetry_Int_Tables_number  74
_chemical_formula_structural  FeNi2S4
_chemical_formula_sum  Fe2Ni4S8
_cell_volume  209.40721400951335
_cell_formula_units_Z  2
loop_
  _symmetry_equiv_pos_site_id
 _symmetry_equiv_pos_as_xyz
 1  'x, y, z'
loop_
 _atom_site_type_symbol
 _atom_site_label
 _atom_site_symmetry_multiplicity
 _atom_site_fract_x
 _atom_site_fract_y
 _atom_site_fract_z
 _atom_site_fract_occupancy
 Fe  Fe1  1  0.50000  0.50000  0.50000  1
 Fe  Fe2  1  0.50000  0.50000  0.00000  1
 Ni  Ni1  1  0.12245  0.12245  0.12755  1
 Ni  Ni2  1  0.00000  0.50000  0.50000  1
 Ni  Ni3  1  0.50000  -0.00000  0.50000  1
 Ni  Ni4  1  0.87755  0.87755  0.87245  1
 S  S1  1  0.26071  0.26071  0.25310  1
 S  S2  1  0.26071  0.26071  0.72548  1
 S  S3  1  0.26144  0.72525  0.25665  1
 S  S4  1  0.72525  0.26144  0.25665  1
 S  S5  1  0.27475  0.73856  0.74335  1
 S  S6  1  0.73856  0.27475  0.74335  1
 S  S7  1  0.73929  0.73929  0.27452  1
 S  S8  1  0.73929  0.73929  0.74690  1
