CIF file written using JARVIS-Tools package.
data_Li4Ti3Cr3W2O16
_symmetry_space_group_name_H-M  'Cm'
_cell_length_a       5.90425
_cell_length_b       5.87768
_cell_length_c       9.65747
_cell_angle_alpha    90.5963
_cell_angle_beta     90.0007
_cell_angle_gamma    120.149

_symmetry_Int_Tables_number  8
_chemical_formula_structural  Li4Ti3Cr3W2O16
_chemical_formula_sum  Li4Ti3Cr3W2O6
_cell_volume  289.78736625208694
_cell_formula_units_Z  1
loop_
  _symmetry_equiv_pos_site_id
 _symmetry_equiv_pos_as_xyz
 1  'x, y, z'
loop_
 _atom_site_type_symbol
 _atom_site_label
 _atom_site_symmetry_multiplicity
 _atom_site_fract_x
 _atom_site_fract_y
 _atom_site_fract_z
 _atom_site_fract_occupancy
 Cr  Cr1  1  0.17028  0.83064  0.71232  1
 Cr  Cr2  1  0.66034  0.83064  0.71232  1
 Cr  Cr3  1  0.83030  0.66062  0.21097  1
 Li  Li1  1  0.66595  0.33193  0.89990  1
 Li  Li2  1  0.99729  0.99459  0.99108  1
 Li  Li3  1  0.99477  0.98953  0.49509  1
 Li  Li4  1  0.33371  0.66743  0.40404  1
 O  O1  1  0.33217  0.16745  0.59737  1
 O  O2  1  0.48173  0.96349  0.83882  1
 O  O3  1  0.66345  0.32693  0.10406  1
 O  O4  1  0.99960  0.99923  0.31131  1
 O  O5  1  0.00037  0.00076  0.80811  1
 O  O6  1  0.83526  0.16744  0.59737  1
 O  O7  1  0.51691  0.03384  0.34192  1
 O  O8  1  0.96538  0.48809  0.34173  1
 O  O9  1  0.83089  0.66180  0.59659  1
 O  O10  1  0.16621  0.83446  0.09336  1
 O  O11  1  0.48245  0.51984  0.84332  1
 O  O12  1  0.33034  0.66071  0.60465  1
 O  O13  1  0.52268  0.48809  0.34173  1
 O  O14  1  0.16592  0.33187  0.09922  1
 O  O15  1  0.03736  0.51984  0.84332  1
 O  O16  1  0.66823  0.83446  0.09336  1
 Ti  Ti1  1  0.16971  0.33943  0.71650  1
 Ti  Ti2  1  0.83582  0.17597  0.21744  1
 Ti  Ti3  1  0.34012  0.17596  0.21744  1
 W  W1  1  0.33618  0.67237  0.98652  1
 W  W2  1  0.66628  0.33257  0.48800  1
