CIF file written using JARVIS-Tools package.
data_CrPO4
_symmetry_space_group_name_H-M  'C2/m'
_cell_length_a       4.77053
_cell_length_b       4.77053
_cell_length_c       12.6707
_cell_angle_alpha    101.427
_cell_angle_beta     78.5731
_cell_angle_gamma    78.9703

_symmetry_Int_Tables_number  12
_chemical_formula_structural  CrPO4
_chemical_formula_sum  Cr4P4O6
_cell_volume  268.9455761212852
_cell_formula_units_Z  4
loop_
  _symmetry_equiv_pos_site_id
 _symmetry_equiv_pos_as_xyz
 1  'x, y, z'
loop_
 _atom_site_type_symbol
 _atom_site_label
 _atom_site_symmetry_multiplicity
 _atom_site_fract_x
 _atom_site_fract_y
 _atom_site_fract_z
 _atom_site_fract_occupancy
 Cr  Cr1  1  0.25006  0.75007  0.25001  1
 Cr  Cr2  1  0.74994  0.24993  0.74999  1
 Cr  Cr3  1  0.75007  0.25006  0.24999  1
 Cr  Cr4  1  0.24993  0.74994  0.75001  1
 O  O1  1  0.98684  0.51304  0.69119  1
 O  O2  1  0.49053  0.64271  0.35501  1
 O  O3  1  0.35729  0.50947  0.85501  1
 O  O4  1  0.23121  0.26864  0.01848  1
 O  O5  1  0.00961  0.85733  0.14499  1
 O  O6  1  0.01316  0.48696  0.30881  1
 O  O7  1  0.76879  0.73136  0.98152  1
 O  O8  1  0.51304  0.98684  0.80881  1
 O  O9  1  0.73136  0.76879  0.51848  1
 O  O10  1  0.50947  0.35729  0.64499  1
 O  O11  1  0.26864  0.23121  0.48152  1
 O  O12  1  -0.00961  0.14267  0.85501  1
 O  O13  1  0.14267  -0.00961  0.64499  1
 O  O14  1  0.85733  0.00961  0.35501  1
 O  O15  1  0.64271  0.49053  0.14499  1
 O  O16  1  0.48696  0.01316  0.19119  1
 P  P1  1  0.24629  0.25360  0.60012  1
 P  P2  1  0.75371  0.74640  0.39988  1
 P  P3  1  0.25360  0.24629  0.89988  1
 P  P4  1  0.74640  0.75371  0.10012  1
