CIF file written using JARVIS-Tools package.
data_K2S2O5
_symmetry_space_group_name_H-M  'P2_1/m'
_cell_length_a       7.03689
_cell_length_b       6.15445
_cell_length_c       7.4562
_cell_angle_alpha    90
_cell_angle_beta     103.934
_cell_angle_gamma    90

_symmetry_Int_Tables_number  11
_chemical_formula_structural  K2S2O5
_chemical_formula_sum  K4S4O0
_cell_volume  313.4119304923743
_cell_formula_units_Z  2
loop_
  _symmetry_equiv_pos_site_id
 _symmetry_equiv_pos_as_xyz
 1  'x, y, z'
loop_
 _atom_site_type_symbol
 _atom_site_label
 _atom_site_symmetry_multiplicity
 _atom_site_fract_x
 _atom_site_fract_y
 _atom_site_fract_z
 _atom_site_fract_occupancy
 K  K1  1  0.36468  0.25000  0.32850  1
 K  K2  1  0.63532  0.75000  0.67150  1
 K  K3  1  0.78453  0.25000  0.07094  1
 K  K4  1  0.21547  0.75000  0.92906  1
 O  O1  1  0.08050  0.94983  0.23045  1
 O  O2  1  0.64476  0.75000  0.03822  1
 O  O3  1  0.63670  0.55043  0.32204  1
 O  O4  1  0.35524  0.25000  0.96178  1
 O  O5  1  0.36330  0.44957  0.67796  1
 O  O6  1  0.63670  0.94957  0.32204  1
 O  O7  1  0.91950  0.05017  0.76955  1
 O  O8  1  0.36330  0.05043  0.67796  1
 O  O9  1  0.08050  0.55017  0.23045  1
 O  O10  1  0.91950  0.44983  0.76955  1
 S  S1  1  0.70201  0.75000  0.24295  1
 S  S2  1  0.29799  0.25000  0.75705  1
 S  S3  1  0.04200  0.75000  0.33169  1
 S  S4  1  0.95800  0.25000  0.66831  1
