CIF file written using JARVIS-Tools package.
data_Na2PRuCO7
_symmetry_space_group_name_H-M  'P2_1/m'
_cell_length_a       5.1467
_cell_length_b       6.51364
_cell_length_c       9.01809
_cell_angle_alpha    90
_cell_angle_beta     91.7988
_cell_angle_gamma    90

_symmetry_Int_Tables_number  11
_chemical_formula_structural  Na2PRuCO7
_chemical_formula_sum  Na4P2Ru2C2O4
_cell_volume  302.17125336079636
_cell_formula_units_Z  2
loop_
  _symmetry_equiv_pos_site_id
 _symmetry_equiv_pos_as_xyz
 1  'x, y, z'
loop_
 _atom_site_type_symbol
 _atom_site_label
 _atom_site_symmetry_multiplicity
 _atom_site_fract_x
 _atom_site_fract_y
 _atom_site_fract_z
 _atom_site_fract_occupancy
 C  C1  1  0.28916  0.25000  0.07150  1
 C  C2  1  0.71084  0.75000  0.92850  1
 Na  Na1  1  0.75891  0.98959  0.23989  1
 Na  Na2  1  0.75891  0.51041  0.23989  1
 Na  Na3  1  0.24109  0.48959  0.76011  1
 Na  Na4  1  0.24109  0.01041  0.76011  1
 O  O1  1  0.67086  0.75000  0.06367  1
 O  O2  1  0.94194  0.75000  0.86911  1
 O  O3  1  0.47708  0.25000  0.17652  1
 O  O4  1  0.20201  0.93873  0.32378  1
 O  O5  1  0.20201  0.56127  0.32378  1
 O  O6  1  0.05806  0.25000  0.13089  1
 O  O7  1  0.59213  0.75000  0.44075  1
 O  O8  1  0.40787  0.25000  0.55925  1
 O  O9  1  0.79799  0.06127  0.67622  1
 O  O10  1  0.79799  0.43873  0.67622  1
 O  O11  1  0.83962  0.25000  0.43012  1
 O  O12  1  0.52292  0.75000  0.82348  1
 O  O13  1  0.16038  0.75000  0.56988  1
 O  O14  1  0.32914  0.25000  0.93633  1
 P  P1  1  0.70948  0.25000  0.58239  1
 P  P2  1  0.29052  0.75000  0.41761  1
 Ru  Ru1  1  0.78863  0.75000  0.65639  1
 Ru  Ru2  1  0.21137  0.25000  0.34361  1
