CIF file written using JARVIS-Tools package.
data_K4Au6S5
_symmetry_space_group_name_H-M  'P-62c'
_cell_length_a       9.61542
_cell_length_b       9.61542
_cell_length_c       9.94273
_cell_angle_alpha    90
_cell_angle_beta     90
_cell_angle_gamma    120

_symmetry_Int_Tables_number  190
_chemical_formula_structural  K4Au6S5
_chemical_formula_sum  K8Au2S0
_cell_volume  796.1104235952722
_cell_formula_units_Z  2
loop_
  _symmetry_equiv_pos_site_id
 _symmetry_equiv_pos_as_xyz
 1  'x, y, z'
loop_
 _atom_site_type_symbol
 _atom_site_label
 _atom_site_symmetry_multiplicity
 _atom_site_fract_x
 _atom_site_fract_y
 _atom_site_fract_z
 _atom_site_fract_occupancy
 Au  Au1  1  0.28017  0.83580  0.08440  1
 Au  Au2  1  0.16420  0.44437  0.08440  1
 Au  Au3  1  0.16420  0.44437  0.41560  1
 Au  Au4  1  0.28017  0.83580  0.41560  1
 Au  Au5  1  0.55563  0.71983  0.41560  1
 Au  Au6  1  0.71983  0.55563  0.58440  1
 Au  Au7  1  0.83580  0.28017  0.91560  1
 Au  Au8  1  0.44437  0.16420  0.91560  1
 Au  Au9  1  0.55563  0.71983  0.08440  1
 Au  Au10  1  0.71983  0.55563  0.91560  1
 Au  Au11  1  0.83580  0.28017  0.58440  1
 Au  Au12  1  0.44437  0.16420  0.58440  1
 K  K1  1  0.57977  0.93356  0.75000  1
 K  K2  1  0.00000  0.00000  0.50000  1
 K  K3  1  0.00000  0.00000  0.00000  1
 K  K4  1  0.64622  0.06644  0.25000  1
 K  K5  1  0.42023  0.35378  0.25000  1
 K  K6  1  0.35378  0.42023  0.75000  1
 K  K7  1  0.06644  0.64622  0.75000  1
 K  K8  1  0.93356  0.57977  0.25000  1
 S  S1  1  0.22379  0.97160  0.25000  1
 S  S2  1  0.02840  0.25219  0.25000  1
 S  S3  1  0.66667  0.33333  0.44948  1
 S  S4  1  0.66667  0.33333  0.05052  1
 S  S5  1  0.25219  0.02840  0.75000  1
 S  S6  1  0.33333  0.66667  0.55052  1
 S  S7  1  0.97160  0.22379  0.75000  1
 S  S8  1  0.74781  0.77621  0.25000  1
 S  S9  1  0.33333  0.66667  0.94948  1
 S  S10  1  0.77621  0.74781  0.75000  1
