CIF file written using JARVIS-Tools package.
data_DyAl8Cr4
_symmetry_space_group_name_H-M  'I4/mmm'
_cell_length_a       5.07268
_cell_length_b       6.78794
_cell_length_c       6.78794
_cell_angle_alpha    98.0257
_cell_angle_beta     68.0589
_cell_angle_gamma    111.941

_symmetry_Int_Tables_number  139
_chemical_formula_structural  DyAl8Cr4
_chemical_formula_sum  DyAl8Cr4
_cell_volume  201.09713765891013
_cell_formula_units_Z  1
loop_
  _symmetry_equiv_pos_site_id
 _symmetry_equiv_pos_as_xyz
 1  'x, y, z'
loop_
 _atom_site_type_symbol
 _atom_site_label
 _atom_site_symmetry_multiplicity
 _atom_site_fract_x
 _atom_site_fract_y
 _atom_site_fract_z
 _atom_site_fract_occupancy
 Al  Al1  1  0.50000  0.22336  0.22336  1
 Al  Al2  1  0.27665  0.77665  0.22336  1
 Al  Al3  1  0.00000  0.33439  0.33439  1
 Al  Al4  1  0.66561  0.66561  0.33439  1
 Al  Al5  1  0.33439  0.33439  0.66561  1
 Al  Al6  1  0.00000  0.66561  0.66561  1
 Al  Al7  1  0.50000  0.77665  0.77665  1
 Al  Al8  1  0.72336  0.22336  0.77665  1
 Cr  Cr1  1  0.00000  0.50000  -0.00000  1
 Cr  Cr2  1  0.50000  0.50000  -0.00000  1
 Cr  Cr3  1  0.00000  -0.00000  0.50000  1
 Cr  Cr4  1  0.50000  -0.00000  0.50000  1
 Dy  Dy1  1  0.00000  0.00000  0.00000  1
