CIF file written using JARVIS-Tools package.
data_Na3NiO2
_symmetry_space_group_name_H-M  'P2_1/c'
_cell_length_a       5.71966
_cell_length_b       8.72245
_cell_length_c       7.83349
_cell_angle_alpha    90
_cell_angle_beta     111.117
_cell_angle_gamma    90

_symmetry_Int_Tables_number  14
_chemical_formula_structural  Na3NiO2
_chemical_formula_sum  Na2Ni4O8
_cell_volume  364.56461058178877
_cell_formula_units_Z  4
loop_
  _symmetry_equiv_pos_site_id
 _symmetry_equiv_pos_as_xyz
 1  'x, y, z'
loop_
 _atom_site_type_symbol
 _atom_site_label
 _atom_site_symmetry_multiplicity
 _atom_site_fract_x
 _atom_site_fract_y
 _atom_site_fract_z
 _atom_site_fract_occupancy
 Na  Na1  1  0.26649  0.28413  0.18997  1
 Na  Na2  1  0.76352  0.03311  0.62709  1
 Na  Na3  1  0.74499  0.46301  0.50190  1
 Na  Na4  1  0.73351  0.78413  0.31003  1
 Na  Na5  1  0.76352  0.46689  0.12709  1
 Na  Na6  1  0.73351  0.71587  0.81003  1
 Na  Na7  1  0.74499  0.03699  0.00190  1
 Na  Na8  1  0.23648  0.53311  0.87291  1
 Na  Na9  1  0.26649  0.21587  0.68997  1
 Na  Na10  1  0.25501  0.53699  0.49810  1
 Na  Na11  1  0.23648  0.96689  0.37291  1
 Na  Na12  1  0.25501  0.96301  -0.00190  1
 Ni  Ni1  1  0.20061  0.67740  0.17037  1
 Ni  Ni2  1  0.79939  0.17740  0.32963  1
 Ni  Ni3  1  0.20061  0.82260  0.67037  1
 Ni  Ni4  1  0.79939  0.32260  0.82963  1
 O  O1  1  0.96556  0.82029  0.11135  1
 O  O2  1  0.44582  0.96012  0.72439  1
 O  O3  1  0.44582  0.53988  0.22439  1
 O  O4  1  0.55418  0.03988  0.27561  1
 O  O5  1  0.03444  0.17971  0.88865  1
 O  O6  1  0.96556  0.67971  0.61135  1
 O  O7  1  0.03444  0.32029  0.38865  1
 O  O8  1  0.55418  0.46012  0.77561  1
