CIF file written using JARVIS-Tools package.
data_NaBiO3
_symmetry_space_group_name_H-M  'R-3'
_cell_length_a       6.23634
_cell_length_b       6.23634
_cell_length_c       6.23633
_cell_angle_alpha    54.2487
_cell_angle_beta     54.2487
_cell_angle_gamma    54.2487

_symmetry_Int_Tables_number  148
_chemical_formula_structural  NaBiO3
_chemical_formula_sum  Na2Bi2O6
_cell_volume  148.48580597554167
_cell_formula_units_Z  2
loop_
  _symmetry_equiv_pos_site_id
 _symmetry_equiv_pos_as_xyz
 1  'x, y, z'
loop_
 _atom_site_type_symbol
 _atom_site_label
 _atom_site_symmetry_multiplicity
 _atom_site_fract_x
 _atom_site_fract_y
 _atom_site_fract_z
 _atom_site_fract_occupancy
 Bi  Bi1  1  0.34454  0.34454  0.34454  1
 Bi  Bi2  1  0.65546  0.65546  0.65546  1
 Na  Na1  1  0.13826  0.13826  0.13826  1
 Na  Na2  1  0.86174  0.86174  0.86174  1
 O  O1  1  0.05694  0.70964  0.46262  1
 O  O2  1  0.70964  0.46262  0.05694  1
 O  O3  1  0.46262  0.05694  0.70964  1
 O  O4  1  0.94306  0.29036  0.53738  1
 O  O5  1  0.53738  0.94306  0.29036  1
 O  O6  1  0.29036  0.53738  0.94306  1
