CIF file written using JARVIS-Tools package.
data_Pb5S2I6
_symmetry_space_group_name_H-M  'C2/m'
_cell_length_a       4.46733
_cell_length_b       7.58835
_cell_length_c       14.7663
_cell_angle_alpha    97.655
_cell_angle_beta     90
_cell_angle_gamma    107.119

_symmetry_Int_Tables_number  12
_chemical_formula_structural  Pb5S2I6
_chemical_formula_sum  Pb5S2I6
_cell_volume  473.72574817592096
_cell_formula_units_Z  1
loop_
  _symmetry_equiv_pos_site_id
 _symmetry_equiv_pos_as_xyz
 1  'x, y, z'
loop_
 _atom_site_type_symbol
 _atom_site_label
 _atom_site_symmetry_multiplicity
 _atom_site_fract_x
 _atom_site_fract_y
 _atom_site_fract_z
 _atom_site_fract_occupancy
 I  I1  1  0.36279  0.72558  0.06464  1
 I  I2  1  0.57215  0.14429  0.64472  1
 I  I3  1  0.11955  0.23909  0.20301  1
 I  I4  1  0.63721  0.27442  0.93536  1
 I  I5  1  0.42785  0.85571  0.35528  1
 I  I6  1  0.88045  0.76091  0.79699  1
 Pb  Pb1  1  0.78466  0.56932  0.23877  1
 Pb  Pb2  1  0.87338  0.74675  0.53662  1
 Pb  Pb3  1  0.12662  0.25325  0.46338  1
 Pb  Pb4  1  0.21534  0.43068  0.76123  1
 Pb  Pb5  1  0.00000  0.00000  0.00000  1
 S  S1  1  0.71941  0.43883  0.40441  1
 S  S2  1  0.28059  0.56117  0.59559  1
