CIF file written using JARVIS-Tools package.
data_Mg2SiO4
_symmetry_space_group_name_H-M  'Imma'
_cell_length_a       5.81914
_cell_length_b       5.8137
_cell_length_c       5.81914
_cell_angle_alpha    60.0309
_cell_angle_beta     58.6395
_cell_angle_gamma    60.0309

_symmetry_Int_Tables_number  74
_chemical_formula_structural  Mg2SiO4
_chemical_formula_sum  Mg4Si2O8
_cell_volume  137.78093661327563
_cell_formula_units_Z  2
loop_
  _symmetry_equiv_pos_site_id
 _symmetry_equiv_pos_as_xyz
 1  'x, y, z'
loop_
 _atom_site_type_symbol
 _atom_site_label
 _atom_site_symmetry_multiplicity
 _atom_site_fract_x
 _atom_site_fract_y
 _atom_site_fract_z
 _atom_site_fract_occupancy
 Mg  Mg1  1  0.11017  0.13983  0.11017  1
 Mg  Mg2  1  0.50000  0.00000  0.50000  1
 Mg  Mg3  1  0.50000  0.50000  0.50000  1
 Mg  Mg4  1  0.88983  0.86017  0.88983  1
 O  O1  1  0.25008  0.28492  0.25008  1
 O  O2  1  0.22077  0.28931  0.70060  1
 O  O3  1  0.25008  0.71493  0.25008  1
 O  O4  1  0.70060  0.28931  0.22077  1
 O  O5  1  0.29940  0.71069  0.77923  1
 O  O6  1  0.74992  0.28507  0.74992  1
 O  O7  1  0.77923  0.71069  0.29940  1
 O  O8  1  0.74992  0.71508  0.74992  1
 Si  Si1  1  0.50000  0.50000  0.00000  1
 Si  Si2  1  -0.00000  0.50000  0.50000  1
