CIF file written using JARVIS-Tools package.
data_NaVO2F2
_symmetry_space_group_name_H-M  'P2_1'
_cell_length_a       6.43379
_cell_length_b       3.55502
_cell_length_c       7.19687
_cell_angle_alpha    90
_cell_angle_beta     109.659
_cell_angle_gamma    90

_symmetry_Int_Tables_number  4
_chemical_formula_structural  NaVO2F2
_chemical_formula_sum  Na2V2O4F4
_cell_volume  155.0144209750552
_cell_formula_units_Z  2
loop_
  _symmetry_equiv_pos_site_id
 _symmetry_equiv_pos_as_xyz
 1  'x, y, z'
loop_
 _atom_site_type_symbol
 _atom_site_label
 _atom_site_symmetry_multiplicity
 _atom_site_fract_x
 _atom_site_fract_y
 _atom_site_fract_z
 _atom_site_fract_occupancy
 F  F1  1  0.62191  0.27651  0.88784  1
 F  F2  1  0.37809  0.77651  0.11216  1
 F  F3  1  0.86209  0.77669  0.24778  1
 F  F4  1  0.13791  0.27669  0.75222  1
 Na  Na1  1  0.63040  0.27556  0.21404  1
 Na  Na2  1  0.36960  0.77556  0.78596  1
 O  O1  1  0.29115  0.73175  0.44646  1
 O  O2  1  0.70885  0.23175  0.55354  1
 O  O3  1  0.09498  0.26220  0.14086  1
 O  O4  1  0.90502  0.76220  0.85914  1
 V  V1  1  0.13888  0.73639  0.21649  1
 V  V2  1  0.86112  0.23639  0.78351  1
