CIF file written using JARVIS-Tools package.
data_Li2Mn3FeO8
_symmetry_space_group_name_H-M  'R-3m'
_cell_length_a       5.71281
_cell_length_b       5.71281
_cell_length_c       5.71281
_cell_angle_alpha    60.3376
_cell_angle_beta     60.3376
_cell_angle_gamma    60.3376

_symmetry_Int_Tables_number  166
_chemical_formula_structural  Li2Mn3FeO8
_chemical_formula_sum  Li2Mn3FeO8
_cell_volume  132.84269436794722
_cell_formula_units_Z  1
loop_
  _symmetry_equiv_pos_site_id
 _symmetry_equiv_pos_as_xyz
 1  'x, y, z'
loop_
 _atom_site_type_symbol
 _atom_site_label
 _atom_site_symmetry_multiplicity
 _atom_site_fract_x
 _atom_site_fract_y
 _atom_site_fract_z
 _atom_site_fract_occupancy
 Fe  Fe1  1  0.50000  0.50000  0.50000  1
 Li  Li1  1  0.12368  0.12368  0.12368  1
 Li  Li2  1  0.87632  0.87632  0.87632  1
 Mn  Mn1  1  0.50000  0.50000  -0.00000  1
 Mn  Mn2  1  0.50000  0.00000  0.50000  1
 Mn  Mn3  1  0.00000  0.50000  0.50000  1
 O  O1  1  0.26145  0.26145  0.26145  1
 O  O2  1  0.71216  0.26158  0.26158  1
 O  O3  1  0.26158  0.71216  0.26158  1
 O  O4  1  0.26158  0.26158  0.71216  1
 O  O5  1  0.73842  0.73842  0.28784  1
 O  O6  1  0.73842  0.28784  0.73842  1
 O  O7  1  0.28784  0.73842  0.73842  1
 O  O8  1  0.73855  0.73855  0.73855  1
