CIF file written using JARVIS-Tools package.
data_Li3Ti2V2O8
_symmetry_space_group_name_H-M  'C2/m'
_cell_length_a       5.90908
_cell_length_b       5.8929
_cell_length_c       5.85771
_cell_angle_alpha    89.9727
_cell_angle_beta     120.29
_cell_angle_gamma    120.091

_symmetry_Int_Tables_number  12
_chemical_formula_structural  Li3Ti2V2O8
_chemical_formula_sum  Li3Ti2V2O8
_cell_volume  143.43177952155975
_cell_formula_units_Z  1
loop_
  _symmetry_equiv_pos_site_id
 _symmetry_equiv_pos_as_xyz
 1  'x, y, z'
loop_
 _atom_site_type_symbol
 _atom_site_label
 _atom_site_symmetry_multiplicity
 _atom_site_fract_x
 _atom_site_fract_y
 _atom_site_fract_z
 _atom_site_fract_occupancy
 Li  Li1  1  0.50000  0.50000  0.50000  1
 Li  Li2  1  0.00000  0.50000  0.50000  1
 Li  Li3  1  0.50000  0.50000  0.00000  1
 O  O1  1  0.47864  0.75296  0.23708  1
 O  O2  1  0.98489  0.24366  0.22613  1
 O  O3  1  0.01139  0.75295  0.23707  1
 O  O4  1  0.51119  0.76363  0.75875  1
 O  O5  1  0.48881  0.23637  0.24125  1
 O  O6  1  0.98861  0.24705  0.76293  1
 O  O7  1  0.01511  0.75634  0.77387  1
 O  O8  1  0.52136  0.24704  0.76292  1
 Ti  Ti1  1  0.50000  0.00000  0.00000  1
 Ti  Ti2  1  0.00000  0.00000  0.00000  1
 V  V1  1  0.50000  -0.00000  0.50000  1
 V  V2  1  0.00000  0.50000  0.00000  1
