CIF file written using JARVIS-Tools package.
data_Li2Ti4VO8
_symmetry_space_group_name_H-M  'C2/m'
_cell_length_a       5.83261
_cell_length_b       5.87549
_cell_length_c       5.89857
_cell_angle_alpha    89.3711
_cell_angle_beta     60.3692
_cell_angle_gamma    119.759

_symmetry_Int_Tables_number  12
_chemical_formula_structural  Li2Ti4VO8
_chemical_formula_sum  Li2Ti4VO8
_cell_volume  143.4610218068769
_cell_formula_units_Z  1
loop_
  _symmetry_equiv_pos_site_id
 _symmetry_equiv_pos_as_xyz
 1  'x, y, z'
loop_
 _atom_site_type_symbol
 _atom_site_label
 _atom_site_symmetry_multiplicity
 _atom_site_fract_x
 _atom_site_fract_y
 _atom_site_fract_z
 _atom_site_fract_occupancy
 Li  Li1  1  0.00000  0.00000  0.50000  1
 Li  Li2  1  0.50000  -0.00000  0.50000  1
 O  O1  1  0.99490  0.24709  0.75176  1
 O  O2  1  0.51473  0.25495  0.22549  1
 O  O3  1  0.99257  0.24234  0.25720  1
 O  O4  1  0.50043  0.24709  0.75176  1
 O  O5  1  0.49957  0.75291  0.24824  1
 O  O6  1  0.00743  0.75766  0.74280  1
 O  O7  1  0.48527  0.74505  0.77451  1
 O  O8  1  0.00510  0.75291  0.24824  1
 Ti  Ti1  1  0.00000  0.00000  0.00000  1
 Ti  Ti2  1  -0.00000  0.50000  0.00000  1
 Ti  Ti3  1  0.50000  0.50000  0.00000  1
 Ti  Ti4  1  -0.00000  0.50000  0.50000  1
 V  V1  1  0.50000  -0.00000  0.00000  1
