CIF file written using JARVIS-Tools package.
data_LiCrCo2O6
_symmetry_space_group_name_H-M  'C2/m'
_cell_length_a       2.8569
_cell_length_b       5.83543
_cell_length_c       6.23835
_cell_angle_alpha    103.625
_cell_angle_beta     103.235
_cell_angle_gamma    90.0024

_symmetry_Int_Tables_number  12
_chemical_formula_structural  LiCrCo2O6
_chemical_formula_sum  LiCrCo2O6
_cell_volume  98.22980493401262
_cell_formula_units_Z  1
loop_
  _symmetry_equiv_pos_site_id
 _symmetry_equiv_pos_as_xyz
 1  'x, y, z'
loop_
 _atom_site_type_symbol
 _atom_site_label
 _atom_site_symmetry_multiplicity
 _atom_site_fract_x
 _atom_site_fract_y
 _atom_site_fract_z
 _atom_site_fract_occupancy
 Co  Co1  1  0.33793  0.65981  0.67579  1
 Co  Co2  1  0.99548  0.00688  0.99088  1
 Cr  Cr1  1  0.66654  0.33331  0.33334  1
 Li  Li1  1  0.66667  0.83329  0.33331  1
 O  O1  1  0.50609  0.22128  0.01204  1
 O  O2  1  0.17427  0.56376  0.34863  1
 O  O3  1  0.15894  0.10288  0.31805  1
 O  O4  1  0.83851  0.87653  0.67692  1
 O  O5  1  0.82733  0.44542  0.65462  1
 O  O6  1  0.49489  0.79017  0.98974  1
