CIF file written using JARVIS-Tools package.
data_Li7Fe3Si2O12
_symmetry_space_group_name_H-M  'C2/m'
_cell_length_a       4.82092
_cell_length_b       4.82094
_cell_length_c       9.56663
_cell_angle_alpha    94.8185
_cell_angle_beta     99.6714
_cell_angle_gamma    60.0002

_symmetry_Int_Tables_number  12
_chemical_formula_structural  Li7Fe3Si2O12
_chemical_formula_sum  Li7Fe3Si2O2
_cell_volume  189.81715731973128
_cell_formula_units_Z  1
loop_
  _symmetry_equiv_pos_site_id
 _symmetry_equiv_pos_as_xyz
 1  'x, y, z'
loop_
 _atom_site_type_symbol
 _atom_site_label
 _atom_site_symmetry_multiplicity
 _atom_site_fract_x
 _atom_site_fract_y
 _atom_site_fract_z
 _atom_site_fract_occupancy
 Fe  Fe1  1  0.91667  0.66667  0.75000  1
 Fe  Fe2  1  0.58314  0.33373  0.75000  1
 Fe  Fe3  1  0.25020  -0.00039  0.75000  1
 Li  Li1  1  0.65960  0.66667  0.00204  1
 Li  Li2  1  0.82503  0.34100  0.49801  1
 Li  Li3  1  0.41667  0.66667  0.25000  1
 Li  Li4  1  0.33396  0.34100  0.00199  1
 Li  Li5  1  0.17374  0.66667  0.49796  1
 Li  Li6  1  0.49937  0.99233  0.49801  1
 Li  Li7  1  0.00830  0.99233  0.00199  1
 O  O1  1  0.62122  0.00049  0.86366  1
 O  O2  1  0.01226  0.66667  0.14402  1
 O  O3  1  0.28826  0.66667  0.86619  1
 O  O4  1  0.45196  0.29764  0.35596  1
 O  O5  1  0.87829  0.00049  0.63634  1
 O  O6  1  0.54508  0.66667  0.63381  1
 O  O7  1  0.08293  0.03569  0.35596  1
 O  O8  1  0.75040  0.29764  0.14404  1
 O  O9  1  0.82107  0.66667  0.35598  1
 O  O10  1  0.21211  0.33284  0.63634  1
 O  O11  1  0.38137  0.03569  0.14404  1
 O  O12  1  0.95504  0.33284  0.86366  1
 Si  Si1  1  0.08333  0.33333  0.25000  1
 Si  Si2  1  0.75000  0.00000  0.25000  1
