CIF file written using JARVIS-Tools package.
data_V4ZnO8
_symmetry_space_group_name_H-M  'R-3m'
_cell_length_a       6.05157
_cell_length_b       6.05157
_cell_length_c       6.05157
_cell_angle_alpha    56.615
_cell_angle_beta     56.6151
_cell_angle_gamma    56.6151

_symmetry_Int_Tables_number  166
_chemical_formula_structural  V4ZnO8
_chemical_formula_sum  V4ZnO8
_cell_volume  144.4534215578133
_cell_formula_units_Z  1
loop_
  _symmetry_equiv_pos_site_id
 _symmetry_equiv_pos_as_xyz
 1  'x, y, z'
loop_
 _atom_site_type_symbol
 _atom_site_label
 _atom_site_symmetry_multiplicity
 _atom_site_fract_x
 _atom_site_fract_y
 _atom_site_fract_z
 _atom_site_fract_occupancy
 O  O1  1  0.75685  0.26785  0.75685  1
 O  O2  1  0.24315  0.24315  0.73215  1
 O  O3  1  0.24315  0.73215  0.24315  1
 O  O4  1  0.73214  0.24315  0.24315  1
 O  O5  1  0.26661  0.26661  0.26661  1
 O  O6  1  0.73339  0.73339  0.73339  1
 O  O7  1  0.26786  0.75685  0.75685  1
 O  O8  1  0.75685  0.75685  0.26785  1
 V  V1  1  0.50000  1.00000  0.50000  1
 V  V2  1  1.00000  0.50000  0.50000  1
 V  V3  1  0.50000  0.50000  0.00000  1
 V  V4  1  0.00000  0.00000  0.00000  1
 Zn  Zn1  1  0.50000  0.50000  0.50000  1
