CIF file written using JARVIS-Tools package.
data_HoVB4
_symmetry_space_group_name_H-M  'Pbam'
_cell_length_a       3.45281
_cell_length_b       5.98749
_cell_length_c       11.5869
_cell_angle_alpha    90
_cell_angle_beta     90
_cell_angle_gamma    90

_symmetry_Int_Tables_number  55
_chemical_formula_structural  HoVB4
_chemical_formula_sum  Ho4V4B6
_cell_volume  239.54354522121946
_cell_formula_units_Z  4
loop_
  _symmetry_equiv_pos_site_id
 _symmetry_equiv_pos_as_xyz
 1  'x, y, z'
loop_
 _atom_site_type_symbol
 _atom_site_label
 _atom_site_symmetry_multiplicity
 _atom_site_fract_x
 _atom_site_fract_y
 _atom_site_fract_z
 _atom_site_fract_occupancy
 B  B1  1  0.50000  0.86465  0.03237  1
 B  B2  1  0.50000  0.47671  0.19246  1
 B  B3  1  0.50000  0.52329  0.80754  1
 B  B4  1  0.50000  0.97671  0.30754  1
 B  B5  1  0.50000  0.88502  0.45243  1
 B  B6  1  0.50000  0.28657  0.31417  1
 B  B7  1  0.50000  0.71343  0.68583  1
 B  B8  1  0.50000  0.02329  0.69246  1
 B  B9  1  0.50000  0.21343  0.81417  1
 B  B10  1  0.50000  0.36465  0.46763  1
 B  B11  1  0.50000  0.63535  0.53237  1
 B  B12  1  0.50000  0.11498  0.54757  1
 B  B13  1  0.50000  0.13535  0.96763  1
 B  B14  1  0.50000  0.38502  0.04757  1
 B  B15  1  0.50000  0.61498  0.95243  1
 B  B16  1  0.50000  0.78657  0.18583  1
 Ho  Ho1  1  0.00000  0.37609  0.65143  1
 Ho  Ho2  1  0.00000  0.62391  0.34857  1
 Ho  Ho3  1  0.00000  0.87609  0.84857  1
 Ho  Ho4  1  0.00000  0.12391  0.15143  1
 V  V1  1  0.00000  0.37294  0.91711  1
 V  V2  1  0.00000  0.62706  0.08289  1
 V  V3  1  0.00000  0.87294  0.58289  1
 V  V4  1  0.00000  0.12706  0.41711  1
