CIF file written using JARVIS-Tools package.
data_Na2Co2O3
_symmetry_space_group_name_H-M  'P2_1/c'
_cell_length_a       5.72452
_cell_length_b       5.58756
_cell_length_c       6.08587
_cell_angle_alpha    90
_cell_angle_beta     117.865
_cell_angle_gamma    90

_symmetry_Int_Tables_number  14
_chemical_formula_structural  Na2Co2O3
_chemical_formula_sum  Na4Co4O6
_cell_volume  172.09178207294826
_cell_formula_units_Z  2
loop_
  _symmetry_equiv_pos_site_id
 _symmetry_equiv_pos_as_xyz
 1  'x, y, z'
loop_
 _atom_site_type_symbol
 _atom_site_label
 _atom_site_symmetry_multiplicity
 _atom_site_fract_x
 _atom_site_fract_y
 _atom_site_fract_z
 _atom_site_fract_occupancy
 Co  Co1  1  0.34520  0.62874  0.59182  1
 Co  Co2  1  0.65480  0.12874  0.90818  1
 Co  Co3  1  0.34520  0.87126  0.09182  1
 Co  Co4  1  0.65480  0.37126  0.40818  1
 Na  Na1  1  0.14088  0.34688  0.89286  1
 Na  Na2  1  0.14088  0.15312  0.39286  1
 Na  Na3  1  0.85912  0.84688  0.60714  1
 Na  Na4  1  0.85912  0.65312  0.10714  1
 O  O1  1  0.00000  0.50000  0.50000  1
 O  O2  1  0.00000  0.00000  0.00000  1
 O  O3  1  0.33977  0.92599  0.75451  1
 O  O4  1  0.33977  0.57401  0.25451  1
 O  O5  1  0.66023  0.42599  0.74549  1
 O  O6  1  0.66023  0.07401  0.24549  1
