CIF file written using JARVIS-Tools package.
data_Mn2OF3
_symmetry_space_group_name_H-M  'Pmc2_1'
_cell_length_a       3.15673
_cell_length_b       4.89981
_cell_length_c       9.94588
_cell_angle_alpha    90
_cell_angle_beta     90.0003
_cell_angle_gamma    90

_symmetry_Int_Tables_number  26
_chemical_formula_structural  Mn2OF3
_chemical_formula_sum  Mn4O2F6
_cell_volume  153.83682241436264
_cell_formula_units_Z  2
loop_
  _symmetry_equiv_pos_site_id
 _symmetry_equiv_pos_as_xyz
 1  'x, y, z'
loop_
 _atom_site_type_symbol
 _atom_site_label
 _atom_site_symmetry_multiplicity
 _atom_site_fract_x
 _atom_site_fract_y
 _atom_site_fract_z
 _atom_site_fract_occupancy
 F  F1  1  0.75568  0.43094  0.48754  1
 F  F2  1  0.75568  0.56906  0.98754  1
 F  F3  1  0.25570  0.99883  0.02397  1
 F  F4  1  0.25572  0.65702  0.24208  1
 F  F5  1  0.25570  0.00117  0.52397  1
 F  F6  1  0.25572  0.34298  0.74208  1
 Mn  Mn1  1  0.75569  0.85771  0.14218  1
 Mn  Mn2  1  0.75569  0.14229  0.64218  1
 Mn  Mn3  1  0.25570  0.29414  0.35671  1
 Mn  Mn4  1  0.25570  0.70586  0.85671  1
 O  O1  1  0.75570  0.15001  0.26701  1
 O  O2  1  0.75570  -0.15001  0.76701  1
