CIF file written using JARVIS-Tools package.
data_TlB6H6
_symmetry_space_group_name_H-M  'Fm-3'
_cell_length_a       7.53978
_cell_length_b       7.53978
_cell_length_c       7.53978
_cell_angle_alpha    60
_cell_angle_beta     60
_cell_angle_gamma    60

_symmetry_Int_Tables_number  202
_chemical_formula_structural  TlB6H6
_chemical_formula_sum  Tl2B2H2
_cell_volume  303.0823512977182
_cell_formula_units_Z  2
loop_
  _symmetry_equiv_pos_site_id
 _symmetry_equiv_pos_as_xyz
 1  'x, y, z'
loop_
 _atom_site_type_symbol
 _atom_site_label
 _atom_site_symmetry_multiplicity
 _atom_site_fract_x
 _atom_site_fract_y
 _atom_site_fract_z
 _atom_site_fract_occupancy
 B  B1  1  0.05251  0.21826  0.78174  1
 B  B2  1  0.78174  0.94749  0.05251  1
 B  B3  1  0.21826  0.94749  0.78174  1
 B  B4  1  0.94749  0.05251  0.78174  1
 B  B5  1  0.78174  0.05251  0.21826  1
 B  B6  1  0.78174  0.21826  0.94749  1
 B  B7  1  0.05251  0.78174  0.94749  1
 B  B8  1  0.94749  0.21826  0.05251  1
 B  B9  1  0.21826  0.05251  0.94749  1
 B  B10  1  0.94749  0.78174  0.21826  1
 B  B11  1  0.21826  0.78174  0.05251  1
 B  B12  1  0.05251  0.94749  0.21826  1
 H  H1  1  0.09285  0.62686  0.90715  1
 H  H2  1  0.37314  0.90715  0.62686  1
 H  H3  1  0.62686  0.90715  0.09285  1
 H  H4  1  0.90715  0.09285  0.62686  1
 H  H5  1  0.62686  0.09285  0.37314  1
 H  H6  1  0.62686  0.37314  0.90715  1
 H  H7  1  0.09285  0.37314  0.62686  1
 H  H8  1  0.90715  0.37314  0.09285  1
 H  H9  1  0.37314  0.09285  0.90715  1
 H  H10  1  0.90715  0.62686  0.37314  1
 H  H11  1  0.37314  0.62686  0.09285  1
 H  H12  1  0.09285  0.90715  0.37314  1
 Tl  Tl1  1  0.75000  0.75000  0.75000  1
 Tl  Tl2  1  0.25000  0.25000  0.25000  1
