CIF file written using JARVIS-Tools package.
data_Sr3V2O8
_symmetry_space_group_name_H-M  'R-3m'
_cell_length_a       7.49474
_cell_length_b       7.49473
_cell_length_c       7.49474
_cell_angle_alpha    44.1905
_cell_angle_beta     44.1906
_cell_angle_gamma    44.1905

_symmetry_Int_Tables_number  166
_chemical_formula_structural  Sr3V2O8
_chemical_formula_sum  Sr3V2O8
_cell_volume  185.85789012318833
_cell_formula_units_Z  1
loop_
  _symmetry_equiv_pos_site_id
 _symmetry_equiv_pos_as_xyz
 1  'x, y, z'
loop_
 _atom_site_type_symbol
 _atom_site_label
 _atom_site_symmetry_multiplicity
 _atom_site_fract_x
 _atom_site_fract_y
 _atom_site_fract_z
 _atom_site_fract_occupancy
 O  O1  1  0.73186  0.23099  0.73186  1
 O  O2  1  0.23099  0.73186  0.73186  1
 O  O3  1  0.73186  0.73186  0.23099  1
 O  O4  1  0.26814  0.76901  0.26814  1
 O  O5  1  0.76901  0.26814  0.26814  1
 O  O6  1  0.32146  0.32146  0.32146  1
 O  O7  1  0.67854  0.67854  0.67854  1
 O  O8  1  0.26814  0.26814  0.76901  1
 Sr  Sr1  1  0.79810  0.79810  0.79810  1
 Sr  Sr2  1  0.20190  0.20190  0.20190  1
 Sr  Sr3  1  0.00000  0.00000  0.00000  1
 V  V1  1  0.59388  0.59388  0.59388  1
 V  V2  1  0.40612  0.40612  0.40612  1
