CIF file written using JARVIS-Tools package.
data_LiVFeO4
_symmetry_space_group_name_H-M  'Imma'
_cell_length_a       5.84531
_cell_length_b       5.84531
_cell_length_c       5.8453
_cell_angle_alpha    119.281
_cell_angle_beta     120.342
_cell_angle_gamma    90.3287

_symmetry_Int_Tables_number  74
_chemical_formula_structural  LiVFeO4
_chemical_formula_sum  Li2V2Fe2O8
_cell_volume  141.607500375586
_cell_formula_units_Z  2
loop_
  _symmetry_equiv_pos_site_id
 _symmetry_equiv_pos_as_xyz
 1  'x, y, z'
loop_
 _atom_site_type_symbol
 _atom_site_label
 _atom_site_symmetry_multiplicity
 _atom_site_fract_x
 _atom_site_fract_y
 _atom_site_fract_z
 _atom_site_fract_occupancy
 Fe  Fe1  1  0.00000  0.00000  0.00000  1
 Fe  Fe2  1  0.50000  0.00000  0.50000  1
 Li  Li1  1  0.00000  -0.00000  0.50000  1
 Li  Li2  1  -0.00000  0.50000  -0.00000  1
 O  O1  1  0.25358  0.25577  0.50219  1
 O  O2  1  0.26192  0.75292  0.50900  1
 O  O3  1  0.74392  0.75292  0.99100  1
 O  O4  1  0.74642  0.24862  0.00219  1
 O  O5  1  0.25358  0.75138  -0.00219  1
 O  O6  1  0.25608  0.24708  0.00900  1
 O  O7  1  0.73808  0.24708  0.49100  1
 O  O8  1  0.74642  0.74423  0.49781  1
 V  V1  1  0.37693  0.62693  0.75000  1
 V  V2  1  0.62307  0.37307  0.25000  1
