CIF file written using JARVIS-Tools package.
data_LiFeO3
_symmetry_space_group_name_H-M  'Cc'
_cell_length_a       4.8095
_cell_length_b       4.80951
_cell_length_c       9.58036
_cell_angle_alpha    85.9624
_cell_angle_beta     94.0376
_cell_angle_gamma    61.4789

_symmetry_Int_Tables_number  9
_chemical_formula_structural  LiFeO3
_chemical_formula_sum  Li4Fe4O2
_cell_volume  192.85655399534747
_cell_formula_units_Z  4
loop_
  _symmetry_equiv_pos_site_id
 _symmetry_equiv_pos_as_xyz
 1  'x, y, z'
loop_
 _atom_site_type_symbol
 _atom_site_label
 _atom_site_symmetry_multiplicity
 _atom_site_fract_x
 _atom_site_fract_y
 _atom_site_fract_z
 _atom_site_fract_occupancy
 Fe  Fe1  1  0.08477  0.07638  0.24970  1
 Fe  Fe2  1  0.41823  0.42481  0.25045  1
 Fe  Fe3  1  0.57519  0.58177  0.75045  1
 Fe  Fe4  1  0.92362  0.91523  0.74970  1
 Li  Li1  1  0.99353  0.48366  0.99847  1
 Li  Li2  1  0.51634  0.00647  0.49847  1
 Li  Li3  1  0.64142  0.12487  0.00245  1
 Li  Li4  1  0.87513  0.35858  0.50245  1
 O  O1  1  0.16118  0.33865  0.36225  1
 O  O2  1  0.66135  0.83882  0.86225  1
 O  O3  1  0.27564  0.57882  0.85784  1
 O  O4  1  0.08142  0.77646  0.14218  1
 O  O5  1  0.34269  0.16133  0.13819  1
 O  O6  1  0.89973  0.22322  0.86119  1
 O  O7  1  0.42118  0.72436  0.35784  1
 O  O8  1  0.77678  0.10027  0.36119  1
 O  O9  1  0.22354  0.91858  0.64218  1
 O  O10  1  0.72650  0.40058  0.13892  1
 O  O11  1  0.59942  0.27350  0.63892  1
 O  O12  1  0.83867  0.65731  0.63819  1
