CIF file written using JARVIS-Tools package.
data_TiMo
_symmetry_space_group_name_H-M  'Imma'
_cell_length_a       2.65604
_cell_length_b       5.2247
_cell_length_c       5.76365
_cell_angle_alpha    116.952
_cell_angle_beta     103.321
_cell_angle_gamma    90

_symmetry_Int_Tables_number  74
_chemical_formula_structural  TiMo
_chemical_formula_sum  Ti2Mo2
_cell_volume  68.87215750731497
_cell_formula_units_Z  2
loop_
  _symmetry_equiv_pos_site_id
 _symmetry_equiv_pos_as_xyz
 1  'x, y, z'
loop_
 _atom_site_type_symbol
 _atom_site_label
 _atom_site_symmetry_multiplicity
 _atom_site_fract_x
 _atom_site_fract_y
 _atom_site_fract_z
 _atom_site_fract_occupancy
 Mo  Mo1  1  0.62674  0.37674  0.75347  1
 Mo  Mo2  1  0.37326  0.62326  0.24653  1
 Ti  Ti1  1  0.63124  0.88124  0.76248  1
 Ti  Ti2  1  0.36876  0.11876  0.23752  1
