CIF file written using JARVIS-Tools package.
data_Li4Fe2TeWO12
_symmetry_space_group_name_H-M  'P1'
_cell_length_a       5.00243
_cell_length_b       5.24691
_cell_length_c       7.25151
_cell_angle_alpha    86.1996
_cell_angle_beta     89.9681
_cell_angle_gamma    90.0297

_symmetry_Int_Tables_number  1
_chemical_formula_structural  Li4Fe2TeWO12
_chemical_formula_sum  Li4Fe2TeWO2
_cell_volume  189.91418324671542
_cell_formula_units_Z  1
loop_
  _symmetry_equiv_pos_site_id
 _symmetry_equiv_pos_as_xyz
 1  'x, y, z'
loop_
 _atom_site_type_symbol
 _atom_site_label
 _atom_site_symmetry_multiplicity
 _atom_site_fract_x
 _atom_site_fract_y
 _atom_site_fract_z
 _atom_site_fract_occupancy
 Fe  Fe1  1  0.99980  0.00056  0.49775  1
 Fe  Fe2  1  0.49946  0.49724  0.00104  1
 Li  Li1  1  0.99429  0.42314  0.71751  1
 Li  Li2  1  0.50527  0.93228  0.21039  1
 Li  Li3  1  0.00183  0.42895  0.21026  1
 Li  Li4  1  0.49817  0.92746  0.71740  1
 O  O1  1  0.69795  0.19229  0.57966  1
 O  O2  1  0.12025  0.01492  0.74950  1
 O  O3  1  0.68266  0.81547  0.94851  1
 O  O4  1  0.81213  0.70118  0.57590  1
 O  O5  1  0.88479  0.00995  0.25827  1
 O  O6  1  0.63403  0.52182  0.24668  1
 O  O7  1  0.16821  0.32555  0.44210  1
 O  O8  1  0.80673  0.31929  0.94967  1
 O  O9  1  0.19791  0.69586  0.06587  1
 O  O10  1  0.31171  0.20368  0.06367  1
 O  O11  1  0.36662  0.51979  0.75619  1
 O  O12  1  0.31879  0.83350  0.44203  1
 Te  Te1  1  0.49929  0.49880  0.49925  1
 W  W1  1  0.00010  0.99586  0.99715  1
