CIF file written using JARVIS-Tools package.
data_Zn3Ni7O10
_symmetry_space_group_name_H-M  'R-3m'
_cell_length_a       3.0024
_cell_length_b       3.0024
_cell_length_c       24.3728
_cell_angle_alpha    93.5313
_cell_angle_beta     90
_cell_angle_gamma    120

_symmetry_Int_Tables_number  166
_chemical_formula_structural  Zn3Ni7O10
_chemical_formula_sum  Zn3Ni7O0
_cell_volume  189.7896417055477
_cell_formula_units_Z  1
loop_
  _symmetry_equiv_pos_site_id
 _symmetry_equiv_pos_as_xyz
 1  'x, y, z'
loop_
 _atom_site_type_symbol
 _atom_site_label
 _atom_site_symmetry_multiplicity
 _atom_site_fract_x
 _atom_site_fract_y
 _atom_site_fract_z
 _atom_site_fract_occupancy
 Ni  Ni1  1  0.80047  0.60093  0.40140  1
 Ni  Ni2  1  0.29901  0.59802  0.89703  1
 Ni  Ni3  1  0.90099  0.80198  0.70297  1
 Ni  Ni4  1  0.50015  0.00029  0.50044  1
 Ni  Ni5  1  0.60000  0.20000  0.80000  1
 Ni  Ni6  1  0.69985  0.39971  0.09956  1
 Ni  Ni7  1  0.39953  0.79907  0.19860  1
 O  O1  1  0.55123  0.10246  0.65369  1
 O  O2  1  0.85002  0.70005  0.55007  1
 O  O3  1  0.15031  0.30062  0.45093  1
 O  O4  1  0.45060  0.90119  0.35179  1
 O  O5  1  0.74940  0.49881  0.24821  1
 O  O6  1  0.64877  0.29754  0.94631  1
 O  O7  1  0.34998  0.69995  0.04993  1
 O  O8  1  0.94945  0.89889  0.84834  1
 O  O9  1  0.25055  0.50111  0.75166  1
 O  O10  1  0.04969  0.09938  0.14907  1
 Zn  Zn1  1  0.20061  0.40122  0.60183  1
 Zn  Zn2  1  0.10000  0.20000  0.30000  1
 Zn  Zn3  1  0.99939  0.99878  0.99817  1
