CIF file written using JARVIS-Tools package.
data_LiCr3O8
_symmetry_space_group_name_H-M  'C2/m'
_cell_length_a       4.97659
_cell_length_b       12.3113
_cell_length_c       4.97658
_cell_angle_alpha    89.2184
_cell_angle_beta     67.0244
_cell_angle_gamma    89.2184

_symmetry_Int_Tables_number  12
_chemical_formula_structural  LiCr3O8
_chemical_formula_sum  Li2Cr6O6
_cell_volume  280.68257082129355
_cell_formula_units_Z  2
loop_
  _symmetry_equiv_pos_site_id
 _symmetry_equiv_pos_as_xyz
 1  'x, y, z'
loop_
 _atom_site_type_symbol
 _atom_site_label
 _atom_site_symmetry_multiplicity
 _atom_site_fract_x
 _atom_site_fract_y
 _atom_site_fract_z
 _atom_site_fract_occupancy
 Cr  Cr1  1  0.64188  0.12766  0.64188  1
 Cr  Cr2  1  0.64186  0.62765  0.64186  1
 Cr  Cr3  1  0.35814  0.37235  0.35814  1
 Cr  Cr4  1  0.35812  0.87234  0.35812  1
 Cr  Cr5  1  0.00001  0.25001  0.00001  1
 Cr  Cr6  1  -0.00001  0.74999  -0.00001  1
 Li  Li1  1  -0.00000  0.00000  -0.00000  1
 Li  Li2  1  0.00000  0.50000  0.00000  1
 O  O1  1  0.74017  0.01416  0.74017  1
 O  O2  1  0.74015  0.51415  0.74015  1
 O  O3  1  0.25985  0.48585  0.25985  1
 O  O4  1  0.21901  0.36498  0.73131  1
 O  O5  1  0.77125  0.22927  0.77125  1
 O  O6  1  0.77123  0.72925  0.77123  1
 O  O7  1  0.25983  0.98584  0.25983  1
 O  O8  1  0.73131  0.36498  0.21901  1
 O  O9  1  0.26871  0.13504  0.78101  1
 O  O10  1  0.26869  0.63502  0.78099  1
 O  O11  1  0.22877  0.27075  0.22877  1
 O  O12  1  0.73129  0.86496  0.21898  1
 O  O13  1  0.78101  0.13504  0.26871  1
 O  O14  1  0.78099  0.63502  0.26869  1
 O  O15  1  0.22875  0.77073  0.22875  1
 O  O16  1  0.21898  0.86496  0.73129  1
