CIF file written using JARVIS-Tools package.
data_Li5SbS
_symmetry_space_group_name_H-M  'P4/mmm'
_cell_length_a       4.27678
_cell_length_b       4.27682
_cell_length_c       6.36114
_cell_angle_alpha    90.0015
_cell_angle_beta     89.9999
_cell_angle_gamma    90.0003

_symmetry_Int_Tables_number  123
_chemical_formula_structural  Li5SbS
_chemical_formula_sum  Li5SbS
_cell_volume  116.35188813375595
_cell_formula_units_Z  1
loop_
  _symmetry_equiv_pos_site_id
 _symmetry_equiv_pos_as_xyz
 1  'x, y, z'
loop_
 _atom_site_type_symbol
 _atom_site_label
 _atom_site_symmetry_multiplicity
 _atom_site_fract_x
 _atom_site_fract_y
 _atom_site_fract_z
 _atom_site_fract_occupancy
 Li  Li1  1  0.00075  0.50347  0.50000  1
 Li  Li2  1  0.00077  0.00364  0.78662  1
 Li  Li3  1  0.00077  0.00355  0.21337  1
 Li  Li4  1  0.50076  0.50361  0.21338  1
 Li  Li5  1  0.50076  0.50374  0.78663  1
 S  S1  1  0.00076  0.50364  -0.00000  1
 Sb  Sb1  1  0.50077  0.00365  0.50000  1
