CIF file written using JARVIS-Tools package.
data_Rb3AsSe16
_symmetry_space_group_name_H-M  'Fd-3'
_cell_length_a       11.8409
_cell_length_b       11.8409
_cell_length_c       11.8409
_cell_angle_alpha    60
_cell_angle_beta     60
_cell_angle_gamma    60

_symmetry_Int_Tables_number  203
_chemical_formula_structural  Rb3AsSe16
_chemical_formula_sum  Rb6As2Se32
_cell_volume  1173.9158868148054
_cell_formula_units_Z  2
loop_
  _symmetry_equiv_pos_site_id
 _symmetry_equiv_pos_as_xyz
 1  'x, y, z'
loop_
 _atom_site_type_symbol
 _atom_site_label
 _atom_site_symmetry_multiplicity
 _atom_site_fract_x
 _atom_site_fract_y
 _atom_site_fract_z
 _atom_site_fract_occupancy
 As  As1  1  0.12500  0.12500  0.12500  1
 As  As2  1  0.87500  0.87500  0.87500  1
 Rb  Rb1  1  0.00000  0.00000  0.50000  1
 Rb  Rb2  1  0.00000  0.50000  0.00000  1
 Rb  Rb3  1  0.00000  0.00000  0.00000  1
 Rb  Rb4  1  0.62500  0.62500  0.62500  1
 Rb  Rb5  1  0.37500  0.37500  0.37500  1
 Rb  Rb6  1  0.50000  0.00000  0.00000  1
 Se  Se1  1  0.69642  0.53167  0.94639  1
 Se  Se2  1  0.05361  0.30358  0.46833  1
 Se  Se3  1  0.69642  0.94639  0.32552  1
 Se  Se4  1  0.94639  0.32552  0.69642  1
 Se  Se5  1  0.32552  0.69642  0.94639  1
 Se  Se6  1  0.79328  0.79328  0.79328  1
 Se  Se7  1  0.20672  0.20672  0.20672  1
 Se  Se8  1  0.79328  0.79328  0.12016  1
 Se  Se9  1  0.79328  0.12016  0.79328  1
 Se  Se10  1  0.53167  0.69642  0.32552  1
 Se  Se11  1  0.87984  0.20672  0.20672  1
 Se  Se12  1  0.20672  0.20672  0.87984  1
 Se  Se13  1  0.20672  0.87984  0.20672  1
 Se  Se14  1  0.12016  0.79328  0.79328  1
 Se  Se15  1  0.32552  0.94639  0.53167  1
 Se  Se16  1  0.53167  0.94639  0.69642  1
 Se  Se17  1  0.32552  0.53167  0.69642  1
 Se  Se18  1  0.94639  0.53167  0.32552  1
 Se  Se19  1  0.94639  0.69642  0.53167  1
 Se  Se20  1  0.69642  0.32552  0.53167  1
 Se  Se21  1  0.67448  0.30358  0.05361  1
 Se  Se22  1  0.05361  0.67448  0.30358  1
 Se  Se23  1  0.30358  0.05361  0.67448  1
 Se  Se24  1  0.46833  0.67448  0.05361  1
 Se  Se25  1  0.30358  0.46833  0.05361  1
 Se  Se26  1  0.46833  0.30358  0.67448  1
 Se  Se27  1  0.67448  0.05361  0.46833  1
 Se  Se28  1  0.67448  0.46833  0.30358  1
 Se  Se29  1  0.05361  0.46833  0.67448  1
 Se  Se30  1  0.46833  0.05361  0.30358  1
 Se  Se31  1  0.30358  0.67448  0.46833  1
 Se  Se32  1  0.53167  0.32552  0.94639  1
