CIF file written using JARVIS-Tools package.
data_AlCoO3
_symmetry_space_group_name_H-M  'C2/c'
_cell_length_a       6.21994
_cell_length_b       6.21994
_cell_length_c       5.0127
_cell_angle_alpha    83.6215
_cell_angle_beta     96.3784
_cell_angle_gamma    95.017

_symmetry_Int_Tables_number  15
_chemical_formula_structural  AlCoO3
_chemical_formula_sum  Al4Co4O2
_cell_volume  190.98154679082882
_cell_formula_units_Z  4
loop_
  _symmetry_equiv_pos_site_id
 _symmetry_equiv_pos_as_xyz
 1  'x, y, z'
loop_
 _atom_site_type_symbol
 _atom_site_label
 _atom_site_symmetry_multiplicity
 _atom_site_fract_x
 _atom_site_fract_y
 _atom_site_fract_z
 _atom_site_fract_occupancy
 Al  Al1  1  0.21748  0.59300  0.70058  1
 Al  Al2  1  0.40700  0.78252  0.20058  1
 Al  Al3  1  0.59300  0.21748  0.79942  1
 Al  Al4  1  0.78252  0.40700  0.29942  1
 Co  Co1  1  0.08731  0.08731  0.75000  1
 Co  Co2  1  0.26081  0.26081  0.25000  1
 Co  Co3  1  0.73919  0.73919  0.75000  1
 Co  Co4  1  0.91269  0.91269  0.25000  1
 O  O1  1  0.02062  0.80080  0.61635  1
 O  O2  1  0.86931  0.64544  0.10236  1
 O  O3  1  0.19920  0.97938  0.11635  1
 O  O4  1  0.28308  0.54897  0.37741  1
 O  O5  1  0.13069  0.35456  0.89764  1
 O  O6  1  0.71692  0.45103  0.62259  1
 O  O7  1  0.64544  0.86931  0.39764  1
 O  O8  1  0.54897  0.28308  0.12259  1
 O  O9  1  0.45103  0.71692  0.87741  1
 O  O10  1  0.80080  0.02062  0.88365  1
 O  O11  1  0.35456  0.13069  0.60236  1
 O  O12  1  0.97938  0.19920  0.38365  1
