CIF file written using JARVIS-Tools package.
data_LiMn3Fe2O8
_symmetry_space_group_name_H-M  'R3m'
_cell_length_a       5.76187
_cell_length_b       5.76187
_cell_length_c       5.76187
_cell_angle_alpha    60.1896
_cell_angle_beta     60.1896
_cell_angle_gamma    60.1896

_symmetry_Int_Tables_number  160
_chemical_formula_structural  LiMn3Fe2O8
_chemical_formula_sum  LiMn3Fe2O8
_cell_volume  135.84324261101983
_cell_formula_units_Z  1
loop_
  _symmetry_equiv_pos_site_id
 _symmetry_equiv_pos_as_xyz
 1  'x, y, z'
loop_
 _atom_site_type_symbol
 _atom_site_label
 _atom_site_symmetry_multiplicity
 _atom_site_fract_x
 _atom_site_fract_y
 _atom_site_fract_z
 _atom_site_fract_occupancy
 Fe  Fe1  1  0.49917  0.49917  0.49917  1
 Fe  Fe2  1  0.87595  0.87595  0.87595  1
 Li  Li1  1  0.12448  0.12448  0.12448  1
 Mn  Mn1  1  0.49875  0.49875  0.00395  1
 Mn  Mn2  1  0.00395  0.49875  0.49875  1
 Mn  Mn3  1  0.49875  0.00395  0.49875  1
 O  O1  1  0.71196  0.26175  0.26175  1
 O  O2  1  0.26202  0.26202  0.26202  1
 O  O3  1  0.26175  0.71196  0.26175  1
 O  O4  1  0.26175  0.26175  0.71196  1
 O  O5  1  0.73923  0.73923  0.28306  1
 O  O6  1  0.73923  0.28306  0.73923  1
 O  O7  1  0.28306  0.73923  0.73923  1
 O  O8  1  0.73994  0.73994  0.73994  1
