CIF file written using JARVIS-Tools package.
data_Li3Fe2O6
_symmetry_space_group_name_H-M  'C2/m'
_cell_length_a       4.88967
_cell_length_b       4.88964
_cell_length_c       4.92784
_cell_angle_alpha    99.8128
_cell_angle_beta     99.8134
_cell_angle_gamma    119.87

_symmetry_Int_Tables_number  12
_chemical_formula_structural  Li3Fe2O6
_chemical_formula_sum  Li3Fe2O6
_cell_volume  96.07331677179465
_cell_formula_units_Z  1
loop_
  _symmetry_equiv_pos_site_id
 _symmetry_equiv_pos_as_xyz
 1  'x, y, z'
loop_
 _atom_site_type_symbol
 _atom_site_label
 _atom_site_symmetry_multiplicity
 _atom_site_fract_x
 _atom_site_fract_y
 _atom_site_fract_z
 _atom_site_fract_occupancy
 Fe  Fe1  1  0.83224  0.66326  0.50090  1
 Fe  Fe2  1  0.16743  0.32806  0.50090  1
 Li  Li1  1  0.99938  0.49520  0.00056  1
 Li  Li2  1  0.65069  0.84437  0.00107  1
 Li  Li3  1  0.34854  0.14651  0.00107  1
 O  O1  1  0.79137  0.28719  0.27082  1
 O  O2  1  0.20828  0.70410  0.73101  1
 O  O3  1  0.42265  0.54805  0.27429  1
 O  O4  1  0.94745  0.07287  0.72751  1
 O  O5  1  0.57704  0.44328  0.72750  1
 O  O6  1  0.05223  0.91846  0.27428  1
