CIF file written using JARVIS-Tools package.
data_TaTe2Br6
_symmetry_space_group_name_H-M  'P-1'
_cell_length_a       6.78458
_cell_length_b       7.06406
_cell_length_c       12.5305
_cell_angle_alpha    85.5312
_cell_angle_beta     82.2816
_cell_angle_gamma    85.5939

_symmetry_Int_Tables_number  2
_chemical_formula_structural  TaTe2Br6
_chemical_formula_sum  Ta2Te4Br2
_cell_volume  591.9548891080331
_cell_formula_units_Z  2
loop_
  _symmetry_equiv_pos_site_id
 _symmetry_equiv_pos_as_xyz
 1  'x, y, z'
loop_
 _atom_site_type_symbol
 _atom_site_label
 _atom_site_symmetry_multiplicity
 _atom_site_fract_x
 _atom_site_fract_y
 _atom_site_fract_z
 _atom_site_fract_occupancy
 Br  Br1  1  0.69827  0.40599  0.62039  1
 Br  Br2  1  0.90594  0.24603  0.99541  1
 Br  Br3  1  0.09406  0.75397  0.00459  1
 Br  Br4  1  0.37773  0.36906  0.13044  1
 Br  Br5  1  0.03976  0.99435  0.25646  1
 Br  Br6  1  0.96024  0.00565  0.74354  1
 Br  Br7  1  0.88381  0.52510  0.25332  1
 Br  Br8  1  0.30173  0.59401  0.37961  1
 Br  Br9  1  0.62227  0.63094  0.86956  1
 Br  Br10  1  0.51554  0.85091  0.13655  1
 Br  Br11  1  0.48446  0.14909  0.86345  1
 Br  Br12  1  0.11619  0.47490  0.74668  1
 Ta  Ta1  1  0.20666  0.67633  0.18151  1
 Ta  Ta2  1  0.79334  0.32367  0.81849  1
 Te  Te1  1  0.57345  0.15478  0.36885  1
 Te  Te2  1  0.42655  0.84522  0.63115  1
 Te  Te3  1  0.74716  0.84277  0.47192  1
 Te  Te4  1  0.25284  0.15723  0.52808  1
