CIF file written using JARVIS-Tools package.
data_Li2Mn3O6
_symmetry_space_group_name_H-M  'Cmce'
_cell_length_a       4.89448
_cell_length_b       4.9254
_cell_length_c       9.99231
_cell_angle_alpha    90
_cell_angle_beta     90
_cell_angle_gamma    59.7908

_symmetry_Int_Tables_number  64
_chemical_formula_structural  Li2Mn3O6
_chemical_formula_sum  Li4Mn6O2
_cell_volume  208.17363136985725
_cell_formula_units_Z  2
loop_
  _symmetry_equiv_pos_site_id
 _symmetry_equiv_pos_as_xyz
 1  'x, y, z'
loop_
 _atom_site_type_symbol
 _atom_site_label
 _atom_site_symmetry_multiplicity
 _atom_site_fract_x
 _atom_site_fract_y
 _atom_site_fract_z
 _atom_site_fract_occupancy
 Li  Li1  1  0.50000  0.15797  0.75000  1
 Li  Li2  1  0.50000  0.34203  0.25000  1
 Li  Li3  1  0.50000  0.65797  0.75000  1
 Li  Li4  1  0.50000  0.84203  0.25000  1
 Mn  Mn1  1  0.00000  0.00000  0.00000  1
 Mn  Mn2  1  0.00000  0.50000  0.50000  1
 Mn  Mn3  1  0.32494  0.33753  0.00000  1
 Mn  Mn4  1  0.32494  0.83753  0.50000  1
 Mn  Mn5  1  0.67506  0.16247  0.50000  1
 Mn  Mn6  1  0.67506  0.66247  0.00000  1
 O  O1  1  0.66141  0.50345  0.39308  1
 O  O2  1  0.00000  0.33147  0.10349  1
 O  O3  1  -0.00000  0.66853  0.89651  1
 O  O4  1  0.33859  -0.00345  0.89308  1
 O  O5  1  -0.00000  0.16853  0.60349  1
 O  O6  1  0.66141  0.33514  0.89308  1
 O  O7  1  0.33859  0.49655  0.60692  1
 O  O8  1  0.33859  0.66486  0.10692  1
 O  O9  1  0.66141  0.00345  0.10692  1
 O  O10  1  0.00000  0.83147  0.39651  1
 O  O11  1  0.33859  0.16486  0.39308  1
 O  O12  1  0.66141  0.83514  0.60692  1
