CIF file written using JARVIS-Tools package.
data_LiFeC2O6
_symmetry_space_group_name_H-M  'P2_1'
_cell_length_a       4.56225
_cell_length_b       7.9353
_cell_length_c       5.80872
_cell_angle_alpha    90
_cell_angle_beta     98.1072
_cell_angle_gamma    90

_symmetry_Int_Tables_number  4
_chemical_formula_structural  LiFeC2O6
_chemical_formula_sum  Li2Fe2C4O2
_cell_volume  208.19071417066132
_cell_formula_units_Z  2
loop_
  _symmetry_equiv_pos_site_id
 _symmetry_equiv_pos_as_xyz
 1  'x, y, z'
loop_
 _atom_site_type_symbol
 _atom_site_label
 _atom_site_symmetry_multiplicity
 _atom_site_fract_x
 _atom_site_fract_y
 _atom_site_fract_z
 _atom_site_fract_occupancy
 C  C1  1  0.10487  0.75972  0.42336  1
 C  C2  1  0.89513  0.25972  0.57664  1
 C  C3  1  0.59361  0.73796  0.94159  1
 C  C4  1  0.40639  0.23796  0.05841  1
 Fe  Fe1  1  0.61976  0.98501  0.30339  1
 Fe  Fe2  1  0.38024  0.48501  0.69661  1
 Li  Li1  1  0.03973  0.94869  0.83247  1
 Li  Li2  1  0.96027  0.44869  0.16753  1
 O  O1  1  0.25780  0.89251  0.39737  1
 O  O2  1  0.27374  0.37714  -0.01760  1
 O  O3  1  0.16418  0.27668  0.53762  1
 O  O4  1  0.83582  0.77668  0.46238  1
 O  O5  1  0.21580  0.60871  0.41000  1
 O  O6  1  0.68105  0.23652  0.14937  1
 O  O7  1  0.73657  0.59915  0.94559  1
 O  O8  1  0.72626  0.87714  0.01760  1
 O  O9  1  0.78420  0.10871  0.59000  1
 O  O10  1  0.31895  0.73652  0.85063  1
 O  O11  1  0.74220  0.39251  0.60263  1
 O  O12  1  0.26343  0.09915  0.05441  1
