CIF file written using JARVIS-Tools package.
data_Sr4Br6O
_symmetry_space_group_name_H-M  'P4_2/nmc'
_cell_length_a       9.6313
_cell_length_b       9.6313
_cell_length_c       7.24656
_cell_angle_alpha    90
_cell_angle_beta     90
_cell_angle_gamma    90

_symmetry_Int_Tables_number  137
_chemical_formula_structural  Sr4Br6O
_chemical_formula_sum  Sr8Br2O2
_cell_volume  672.2043618750121
_cell_formula_units_Z  2
loop_
  _symmetry_equiv_pos_site_id
 _symmetry_equiv_pos_as_xyz
 1  'x, y, z'
loop_
 _atom_site_type_symbol
 _atom_site_label
 _atom_site_symmetry_multiplicity
 _atom_site_fract_x
 _atom_site_fract_y
 _atom_site_fract_z
 _atom_site_fract_occupancy
 Br  Br1  1  0.00000  0.50000  0.87877  1
 Br  Br2  1  0.20112  0.20112  0.00000  1
 Br  Br3  1  0.20112  0.79888  0.00000  1
 Br  Br4  1  0.79888  0.79888  0.00000  1
 Br  Br5  1  0.50000  0.00000  0.62123  1
 Br  Br6  1  0.79888  0.20112  0.00000  1
 Br  Br7  1  0.50000  0.00000  0.12123  1
 Br  Br8  1  0.29888  0.29888  0.50000  1
 Br  Br9  1  0.70112  0.70112  0.50000  1
 Br  Br10  1  0.29888  0.70112  0.50000  1
 Br  Br11  1  0.70112  0.29888  0.50000  1
 Br  Br12  1  0.00000  0.50000  0.37877  1
 O  O1  1  0.50000  0.50000  0.00000  1
 O  O2  1  0.00000  0.00000  0.50000  1
 Sr  Sr1  1  0.00000  0.76772  0.65423  1
 Sr  Sr2  1  0.26772  0.50000  0.15423  1
 Sr  Sr3  1  0.73228  0.50000  0.15423  1
 Sr  Sr4  1  0.00000  0.23228  0.65423  1
 Sr  Sr5  1  0.50000  0.26772  0.84577  1
 Sr  Sr6  1  0.76772  0.00000  0.34577  1
 Sr  Sr7  1  0.23228  0.00000  0.34577  1
 Sr  Sr8  1  0.50000  0.73228  0.84577  1
