CIF file written using JARVIS-Tools package.
data_Mn3O2F4
_symmetry_space_group_name_H-M  'P2_1/c'
_cell_length_a       4.70273
_cell_length_b       4.64392
_cell_length_c       10.6153
_cell_angle_alpha    90
_cell_angle_beta     115.773
_cell_angle_gamma    90

_symmetry_Int_Tables_number  14
_chemical_formula_structural  Mn3O2F4
_chemical_formula_sum  Mn6O4F8
_cell_volume  208.76736898112944
_cell_formula_units_Z  2
loop_
  _symmetry_equiv_pos_site_id
 _symmetry_equiv_pos_as_xyz
 1  'x, y, z'
loop_
 _atom_site_type_symbol
 _atom_site_label
 _atom_site_symmetry_multiplicity
 _atom_site_fract_x
 _atom_site_fract_y
 _atom_site_fract_z
 _atom_site_fract_occupancy
 F  F1  1  0.80228  0.79829  0.98790  1
 F  F2  1  0.19772  0.29829  0.51210  1
 F  F3  1  0.80228  0.70171  0.48790  1
 F  F4  1  0.44537  0.73660  0.16184  1
 F  F5  1  0.19772  0.20171  0.01210  1
 F  F6  1  0.55463  0.23660  0.33816  1
 F  F7  1  0.44537  0.76340  0.66184  1
 F  F8  1  0.55463  0.26340  0.83816  1
 Mn  Mn1  1  0.13793  0.02764  0.17509  1
 Mn  Mn2  1  0.13793  0.47236  0.67509  1
 Mn  Mn3  1  0.86207  0.52764  0.32491  1
 Mn  Mn4  1  0.50000  0.50000  -0.00000  1
 Mn  Mn5  1  0.86207  0.97236  0.82491  1
 Mn  Mn6  1  0.50000  0.00000  0.50000  1
 O  O1  1  0.14586  0.66770  0.83539  1
 O  O2  1  0.14586  0.83230  0.33539  1
 O  O3  1  0.85414  0.33230  0.16461  1
 O  O4  1  0.85414  0.16770  0.66461  1
