CIF file written using JARVIS-Tools package.
data_PrAsO4
_symmetry_space_group_name_H-M  'I4_1/amd'
_cell_length_a       6.16105
_cell_length_b       6.16105
_cell_length_c       6.16105
_cell_angle_alpha    106.538
_cell_angle_beta     106.538
_cell_angle_gamma    115.512

_symmetry_Int_Tables_number  141
_chemical_formula_structural  PrAsO4
_chemical_formula_sum  Pr2As2O8
_cell_volume  178.51220891490829
_cell_formula_units_Z  2
loop_
  _symmetry_equiv_pos_site_id
 _symmetry_equiv_pos_as_xyz
 1  'x, y, z'
loop_
 _atom_site_type_symbol
 _atom_site_label
 _atom_site_symmetry_multiplicity
 _atom_site_fract_x
 _atom_site_fract_y
 _atom_site_fract_z
 _atom_site_fract_occupancy
 As  As1  1  0.50000  0.50000  0.00000  1
 As  As2  1  0.25000  0.75000  0.50000  1
 O  O1  1  0.51033  0.33168  0.17865  1
 O  O2  1  0.66832  0.84696  0.17865  1
 O  O3  1  0.08168  0.40304  0.32135  1
 O  O4  1  0.66832  0.48967  0.82135  1
 O  O5  1  0.15304  0.33168  0.82135  1
 O  O6  1  0.23967  0.91832  0.32135  1
 O  O7  1  0.59696  0.91832  0.67865  1
 O  O8  1  0.08168  0.76033  0.67865  1
 Pr  Pr1  1  0.75000  0.25000  0.50000  1
 Pr  Pr2  1  0.00000  0.00000  0.00000  1
