CIF file written using JARVIS-Tools package.
data_K3ClO
_symmetry_space_group_name_H-M  'Amm2'
_cell_length_a       5.25773
_cell_length_b       10.0293
_cell_length_c       7.09164
_cell_angle_alpha    44.9989
_cell_angle_beta     90
_cell_angle_gamma    90

_symmetry_Int_Tables_number  38
_chemical_formula_structural  K3ClO
_chemical_formula_sum  K6Cl2O2
_cell_volume  264.41821235916126
_cell_formula_units_Z  2
loop_
  _symmetry_equiv_pos_site_id
 _symmetry_equiv_pos_as_xyz
 1  'x, y, z'
loop_
 _atom_site_type_symbol
 _atom_site_label
 _atom_site_symmetry_multiplicity
 _atom_site_fract_x
 _atom_site_fract_y
 _atom_site_fract_z
 _atom_site_fract_occupancy
 Cl  Cl1  1  0.50000  0.49231  0.50000  1
 Cl  Cl2  1  0.50000  -0.00718  0.50000  1
 K  K1  1  0.00000  0.17757  0.50000  1
 K  K2  1  0.00000  0.67742  0.13071  1
 K  K3  1  0.00000  0.30813  0.86929  1
 K  K4  1  0.50000  0.49281  -0.00006  1
 K  K5  1  0.50000  0.99275  0.00006  1
 K  K6  1  0.00000  0.80833  0.50000  1
 O  O1  1  0.00000  0.99272  0.00014  1
 O  O2  1  0.00000  0.49286  0.99986  1
