CIF file written using JARVIS-Tools package.
data_LiGaSe2
_symmetry_space_group_name_H-M  'Pna2_1'
_cell_length_a       6.61532
_cell_length_b       6.90906
_cell_length_c       8.23814
_cell_angle_alpha    90
_cell_angle_beta     90
_cell_angle_gamma    90

_symmetry_Int_Tables_number  33
_chemical_formula_structural  LiGaSe2
_chemical_formula_sum  Li4Ga4Se8
_cell_volume  376.52931639598415
_cell_formula_units_Z  4
loop_
  _symmetry_equiv_pos_site_id
 _symmetry_equiv_pos_as_xyz
 1  'x, y, z'
loop_
 _atom_site_type_symbol
 _atom_site_label
 _atom_site_symmetry_multiplicity
 _atom_site_fract_x
 _atom_site_fract_y
 _atom_site_fract_z
 _atom_site_fract_occupancy
 Ga  Ga1  1  0.62258  0.57457  0.62593  1
 Ga  Ga2  1  0.12258  0.42543  0.37407  1
 Ga  Ga3  1  0.12258  0.92543  0.12593  1
 Ga  Ga4  1  0.62258  0.07457  0.87407  1
 Li  Li1  1  0.12029  0.91198  0.62202  1
 Li  Li2  1  0.62029  0.08802  0.37798  1
 Li  Li3  1  0.62029  0.58802  0.12202  1
 Li  Li4  1  0.12029  0.41198  0.87798  1
 Se  Se1  1  0.50295  0.90894  0.63113  1
 Se  Se2  1  0.00295  0.09106  0.36887  1
 Se  Se3  1  0.00295  0.59106  0.13113  1
 Se  Se4  1  0.50295  0.40894  0.86887  1
 Se  Se5  1  0.99218  0.06971  0.87845  1
 Se  Se6  1  0.49218  0.93029  0.12155  1
 Se  Se7  1  0.49218  0.43029  0.37845  1
 Se  Se8  1  0.99218  0.56971  0.62155  1
