CIF file written using JARVIS-Tools package.
data_MgCo2O4
_symmetry_space_group_name_H-M  'Fd-3m'
_cell_length_a       5.76453
_cell_length_b       5.76456
_cell_length_c       5.76448
_cell_angle_alpha    120
_cell_angle_beta     120
_cell_angle_gamma    90.0002

_symmetry_Int_Tables_number  227
_chemical_formula_structural  MgCo2O4
_chemical_formula_sum  Mg2Co4O8
_cell_volume  135.44906545053138
_cell_formula_units_Z  2
loop_
  _symmetry_equiv_pos_site_id
 _symmetry_equiv_pos_as_xyz
 1  'x, y, z'
loop_
 _atom_site_type_symbol
 _atom_site_label
 _atom_site_symmetry_multiplicity
 _atom_site_fract_x
 _atom_site_fract_y
 _atom_site_fract_z
 _atom_site_fract_occupancy
 Co  Co1  1  -0.00000  0.50000  0.50000  1
 Co  Co2  1  0.50000  0.50000  0.50000  1
 Co  Co3  1  0.50000  0.00000  -0.00000  1
 Co  Co4  1  0.50000  0.50000  0.00000  1
 Mg  Mg1  1  0.12500  0.87501  0.25001  1
 Mg  Mg2  1  0.87500  0.12499  0.74999  1
 O  O1  1  0.73585  0.26415  0.02828  1
 O  O2  1  0.73584  0.70756  0.47171  1
 O  O3  1  0.73587  0.26415  0.47171  1
 O  O4  1  0.70757  0.73587  0.97172  1
 O  O5  1  0.26413  0.73585  0.52829  1
 O  O6  1  0.26416  0.29244  0.52829  1
 O  O7  1  0.29243  0.26413  0.02828  1
 O  O8  1  0.26415  0.73585  0.97172  1
