CIF file written using JARVIS-Tools package.
data_Ni3OF5
_symmetry_space_group_name_H-M  'Cm'
_cell_length_a       7.13798
_cell_length_b       5.5603
_cell_length_c       5.5603
_cell_angle_alpha    73.6058
_cell_angle_beta     73.4922
_cell_angle_gamma    73.4922

_symmetry_Int_Tables_number  8
_chemical_formula_structural  Ni3OF5
_chemical_formula_sum  Ni6O2F0
_cell_volume  197.93294086790308
_cell_formula_units_Z  2
loop_
  _symmetry_equiv_pos_site_id
 _symmetry_equiv_pos_as_xyz
 1  'x, y, z'
loop_
 _atom_site_type_symbol
 _atom_site_label
 _atom_site_symmetry_multiplicity
 _atom_site_fract_x
 _atom_site_fract_y
 _atom_site_fract_z
 _atom_site_fract_occupancy
 F  F1  1  0.33404  0.96971  0.36132  1
 F  F2  1  0.66878  0.63806  0.03386  1
 F  F3  1  0.33404  0.36132  0.96971  1
 F  F4  1  0.30089  0.89313  0.89313  1
 F  F5  1  0.66878  0.03386  0.63806  1
 F  F6  1  0.96527  0.23126  0.23126  1
 F  F7  1  0.70049  0.10260  0.10260  1
 F  F8  1  0.99854  0.30202  0.69628  1
 F  F9  1  0.99854  0.69628  0.30202  1
 F  F10  1  0.63211  0.57338  0.57338  1
 Ni  Ni1  1  -0.00018  0.98905  0.98905  1
 Ni  Ni2  1  0.49891  0.99885  0.99885  1
 Ni  Ni3  1  0.17785  0.33778  0.33778  1
 Ni  Ni4  1  0.65344  0.34006  0.34006  1
 Ni  Ni5  1  0.31721  0.65697  0.65697  1
 Ni  Ni6  1  0.84486  0.67365  0.67365  1
 O  O1  1  0.36989  0.43459  0.43459  1
 O  O2  1  0.03652  0.76744  0.76744  1
