CIF file written using JARVIS-Tools package.
data_BaZnCl4
_symmetry_space_group_name_H-M  'Pbcn'
_cell_length_a       6.5403
_cell_length_b       6.76539
_cell_length_c       15.4401
_cell_angle_alpha    90
_cell_angle_beta     90
_cell_angle_gamma    90

_symmetry_Int_Tables_number  60
_chemical_formula_structural  BaZnCl4
_chemical_formula_sum  Ba4Zn4Cl6
_cell_volume  683.1888033299535
_cell_formula_units_Z  4
loop_
  _symmetry_equiv_pos_site_id
 _symmetry_equiv_pos_as_xyz
 1  'x, y, z'
loop_
 _atom_site_type_symbol
 _atom_site_label
 _atom_site_symmetry_multiplicity
 _atom_site_fract_x
 _atom_site_fract_y
 _atom_site_fract_z
 _atom_site_fract_occupancy
 Ba  Ba1  1  0.50000  0.75000  0.62943  1
 Ba  Ba2  1  0.00000  0.25000  0.87057  1
 Ba  Ba3  1  0.50000  0.25000  0.37057  1
 Ba  Ba4  1  0.00000  0.75000  0.12943  1
 Cl  Cl1  1  0.86244  0.48713  0.70145  1
 Cl  Cl2  1  0.36244  0.51287  0.79855  1
 Cl  Cl3  1  0.63756  0.98713  0.79855  1
 Cl  Cl4  1  0.25681  0.90484  0.46237  1
 Cl  Cl5  1  0.13756  0.51287  0.29855  1
 Cl  Cl6  1  0.63756  0.48713  0.20145  1
 Cl  Cl7  1  0.13756  0.01287  0.70145  1
 Cl  Cl8  1  0.86244  0.98713  0.29855  1
 Cl  Cl9  1  0.75681  0.59516  0.96237  1
 Cl  Cl10  1  0.74319  0.09516  0.53763  1
 Cl  Cl11  1  0.36244  0.01287  0.20145  1
 Cl  Cl12  1  0.24319  0.90484  0.96237  1
 Cl  Cl13  1  0.24319  0.40484  0.03763  1
 Cl  Cl14  1  0.74319  0.59516  0.46237  1
 Cl  Cl15  1  0.25681  0.40484  0.53763  1
 Cl  Cl16  1  0.75681  0.09516  0.03763  1
 Zn  Zn1  1  0.50000  0.75000  0.88888  1
 Zn  Zn2  1  0.00000  0.25000  0.61112  1
 Zn  Zn3  1  0.50000  0.25000  0.11112  1
 Zn  Zn4  1  0.00000  0.75000  0.38888  1
