CIF file written using JARVIS-Tools package.
data_MnZnSiO5
_symmetry_space_group_name_H-M  'P-1'
_cell_length_a       5.15591
_cell_length_b       5.35504
_cell_length_c       6.99139
_cell_angle_alpha    105.937
_cell_angle_beta     106.13
_cell_angle_gamma    103.021

_symmetry_Int_Tables_number  2
_chemical_formula_structural  MnZnSiO5
_chemical_formula_sum  Mn2Zn2Si2O0
_cell_volume  168.53502957640126
_cell_formula_units_Z  2
loop_
  _symmetry_equiv_pos_site_id
 _symmetry_equiv_pos_as_xyz
 1  'x, y, z'
loop_
 _atom_site_type_symbol
 _atom_site_label
 _atom_site_symmetry_multiplicity
 _atom_site_fract_x
 _atom_site_fract_y
 _atom_site_fract_z
 _atom_site_fract_occupancy
 Mn  Mn1  1  0.00425  0.49493  0.51456  1
 Mn  Mn2  1  0.00425  0.49491  0.01456  1
 O  O1  1  0.75346  0.69348  0.93486  1
 O  O2  1  0.94293  0.83856  0.64571  1
 O  O3  1  0.25501  0.29634  0.09424  1
 O  O4  1  0.06558  0.15130  0.38341  1
 O  O5  1  0.63246  0.29795  0.46902  1
 O  O6  1  0.31968  0.84134  0.16772  1
 O  O7  1  0.37604  0.69190  0.56009  1
 O  O8  1  0.68882  0.14848  0.86140  1
 O  O9  1  0.88149  0.53329  0.24770  1
 O  O10  1  0.12700  0.45656  0.78141  1
 Si  Si1  1  0.68897  0.83019  0.74896  1
 Si  Si2  1  0.31953  0.15965  0.28015  1
 Zn  Zn1  1  0.30420  0.17107  0.78696  1
 Zn  Zn2  1  0.70431  0.81880  0.24214  1
