CIF file written using JARVIS-Tools package.
data_ZrCl3
_symmetry_space_group_name_H-M  'R-3'
_cell_length_a       10.6978
_cell_length_b       6.17639
_cell_length_c       6.98632
_cell_angle_alpha    63.7662
_cell_angle_beta     59.3083
_cell_angle_gamma    30

_symmetry_Int_Tables_number  148
_chemical_formula_structural  ZrCl3
_chemical_formula_sum  Zr2Cl6
_cell_volume  198.47653894437303
_cell_formula_units_Z  2
loop_
  _symmetry_equiv_pos_site_id
 _symmetry_equiv_pos_as_xyz
 1  'x, y, z'
loop_
 _atom_site_type_symbol
 _atom_site_label
 _atom_site_symmetry_multiplicity
 _atom_site_fract_x
 _atom_site_fract_y
 _atom_site_fract_z
 _atom_site_fract_occupancy
 Cl  Cl1  1  0.08324  0.33030  0.75009  1
 Cl  Cl2  1  0.24687  0.66990  0.24991  1
 Cl  Cl3  1  0.41354  0.33959  0.75009  1
 Cl  Cl4  1  0.58646  0.66041  0.24991  1
 Cl  Cl5  1  0.75313  0.33010  0.75009  1
 Cl  Cl6  1  0.91676  0.66970  0.24991  1
 Zr  Zr1  1  0.33335  -0.00000  -0.00004  1
 Zr  Zr2  1  0.66665  0.00000  0.00004  1
