CIF file written using JARVIS-Tools package.
data_AgCSN
_symmetry_space_group_name_H-M  'C2/c'
_cell_length_a       5.92563
_cell_length_b       5.92564
_cell_length_c       8.15075
_cell_angle_alpha    87.3211
_cell_angle_beta     87.3211
_cell_angle_gamma    87.5172

_symmetry_Int_Tables_number  15
_chemical_formula_structural  AgCSN
_chemical_formula_sum  Ag4C4S4N4
_cell_volume  285.33095177595357
_cell_formula_units_Z  4
loop_
  _symmetry_equiv_pos_site_id
 _symmetry_equiv_pos_as_xyz
 1  'x, y, z'
loop_
 _atom_site_type_symbol
 _atom_site_label
 _atom_site_symmetry_multiplicity
 _atom_site_fract_x
 _atom_site_fract_y
 _atom_site_fract_z
 _atom_site_fract_occupancy
 Ag  Ag1  1  0.05192  0.26089  0.09491  1
 Ag  Ag2  1  0.23911  0.44808  0.40509  1
 Ag  Ag3  1  0.94808  0.73911  0.90509  1
 Ag  Ag4  1  0.76089  0.55192  0.59491  1
 C  C1  1  0.74728  0.03257  0.37967  1
 C  C2  1  0.46743  0.75272  0.12033  1
 C  C3  1  0.25272  0.96743  0.62033  1
 C  C4  1  0.53257  0.24728  0.87967  1
 N  N1  1  0.75817  0.85429  0.44863  1
 N  N2  1  0.35429  0.25817  0.94863  1
 N  N3  1  0.24183  0.14571  0.55137  1
 N  N4  1  0.64571  0.74183  0.05137  1
 S  S1  1  0.72614  0.28328  0.28550  1
 S  S2  1  0.27386  0.71672  0.71450  1
 S  S3  1  0.21672  0.77386  0.21450  1
 S  S4  1  0.78328  0.22614  0.78550  1
