CIF file written using JARVIS-Tools package.
data_CeW2O8
_symmetry_space_group_name_H-M  'C2/c'
_cell_length_a       7.28334
_cell_length_b       7.28334
_cell_length_c       7.84015
_cell_angle_alpha    63.7014
_cell_angle_beta     116.299
_cell_angle_gamma    111.904

_symmetry_Int_Tables_number  15
_chemical_formula_structural  CeW2O8
_chemical_formula_sum  Ce2W4O6
_cell_volume  326.07598894913014
_cell_formula_units_Z  2
loop_
  _symmetry_equiv_pos_site_id
 _symmetry_equiv_pos_as_xyz
 1  'x, y, z'
loop_
 _atom_site_type_symbol
 _atom_site_label
 _atom_site_symmetry_multiplicity
 _atom_site_fract_x
 _atom_site_fract_y
 _atom_site_fract_z
 _atom_site_fract_occupancy
 Ce  Ce1  1  0.03206  0.03206  0.75000  1
 Ce  Ce2  1  0.96794  0.96794  0.25000  1
 O  O1  1  0.40342  0.67086  0.82385  1
 O  O2  1  0.78117  0.97668  0.91391  1
 O  O3  1  0.05154  0.36383  0.71191  1
 O  O4  1  0.67491  0.98604  0.55823  1
 O  O5  1  0.21883  0.02332  0.08609  1
 O  O6  1  0.02332  0.21883  0.41391  1
 O  O7  1  0.32914  0.59658  0.32385  1
 O  O8  1  0.01396  0.32509  0.05823  1
 O  O9  1  0.98604  0.67491  0.94177  1
 O  O10  1  0.36383  0.05154  0.78809  1
 O  O11  1  0.97668  0.78117  0.58609  1
 O  O12  1  0.67086  0.40342  0.67615  1
 O  O13  1  0.32509  0.01396  0.44177  1
 O  O14  1  0.94846  0.63617  0.28809  1
 O  O15  1  0.63617  0.94846  0.21191  1
 O  O16  1  0.59658  0.32914  0.17615  1
 W  W1  1  0.49494  0.06312  0.26687  1
 W  W2  1  0.93688  0.50506  0.76687  1
 W  W3  1  0.06312  0.49494  0.23313  1
 W  W4  1  0.50506  0.93688  0.73313  1
