CIF file written using JARVIS-Tools package.
data_Li4Cr5O10
_symmetry_space_group_name_H-M  'P-1'
_cell_length_a       5.01727
_cell_length_b       5.85907
_cell_length_c       6.52626
_cell_angle_alpha    103.901
_cell_angle_beta     97.3648
_cell_angle_gamma    106.383

_symmetry_Int_Tables_number  2
_chemical_formula_structural  Li4Cr5O10
_chemical_formula_sum  Li4Cr5O0
_cell_volume  174.6686386520568
_cell_formula_units_Z  1
loop_
  _symmetry_equiv_pos_site_id
 _symmetry_equiv_pos_as_xyz
 1  'x, y, z'
loop_
 _atom_site_type_symbol
 _atom_site_label
 _atom_site_symmetry_multiplicity
 _atom_site_fract_x
 _atom_site_fract_y
 _atom_site_fract_z
 _atom_site_fract_occupancy
 Cr  Cr1  1  0.80094  0.10289  0.60817  1
 Cr  Cr2  1  0.39321  0.29924  0.80376  1
 Cr  Cr3  1  0.60679  0.70076  0.19624  1
 Cr  Cr4  1  -0.00000  0.50000  0.00000  1
 Cr  Cr5  1  0.19906  0.89711  0.39183  1
 Li  Li1  1  0.59788  0.18952  0.19060  1
 Li  Li2  1  0.80770  0.61611  0.61471  1
 Li  Li3  1  0.19230  0.38389  0.38529  1
 Li  Li4  1  0.40212  0.81048  0.80940  1
 O  O1  1  0.10522  0.96615  0.67998  1
 O  O2  1  0.89478  0.03385  0.32002  1
 O  O3  1  0.49319  0.23139  0.51136  1
 O  O4  1  0.69103  0.16756  0.89075  1
 O  O5  1  0.50681  0.76861  0.48864  1
 O  O6  1  0.90640  0.56249  0.29274  1
 O  O7  1  0.31343  0.37332  0.09536  1
 O  O8  1  0.68657  0.62668  0.90464  1
 O  O9  1  0.09360  0.43751  0.70726  1
 O  O10  1  0.30897  0.83244  0.10925  1
