CIF file written using JARVIS-Tools package.
data_LiMnCoO4
_symmetry_space_group_name_H-M  'Imma'
_cell_length_a       5.6949
_cell_length_b       5.69491
_cell_length_c       5.6949
_cell_angle_alpha    89.1969
_cell_angle_beta     119.665
_cell_angle_gamma    60.5895

_symmetry_Int_Tables_number  74
_chemical_formula_structural  LiMnCoO4
_chemical_formula_sum  Li2Mn2Co2O8
_cell_volume  131.49880852949036
_cell_formula_units_Z  2
loop_
  _symmetry_equiv_pos_site_id
 _symmetry_equiv_pos_as_xyz
 1  'x, y, z'
loop_
 _atom_site_type_symbol
 _atom_site_label
 _atom_site_symmetry_multiplicity
 _atom_site_fract_x
 _atom_site_fract_y
 _atom_site_fract_z
 _atom_site_fract_occupancy
 Co  Co1  1  0.50000  0.00000  -0.00000  1
 Co  Co2  1  0.00000  0.50000  -0.00000  1
 Li  Li1  1  0.75000  0.12532  0.62468  1
 Li  Li2  1  0.25000  0.87468  0.37532  1
 Mn  Mn1  1  0.50000  0.50000  -0.00000  1
 Mn  Mn2  1  -0.00000  0.50000  0.50000  1
 O  O1  1  0.52787  0.73780  0.79006  1
 O  O2  1  0.97213  0.73780  0.23433  1
 O  O3  1  0.97327  0.28643  0.24031  1
 O  O4  1  0.52673  0.73296  0.24031  1
 O  O5  1  0.47327  0.26704  0.75969  1
 O  O6  1  0.02673  0.71357  0.75969  1
 O  O7  1  0.02787  0.26220  0.76567  1
 O  O8  1  0.47213  0.26220  0.20994  1
