CIF file written using JARVIS-Tools package.
data_YH3
_symmetry_space_group_name_H-M  'P-3c1'
_cell_length_a       6.34829
_cell_length_b       6.34829
_cell_length_c       6.61885
_cell_angle_alpha    90
_cell_angle_beta     90
_cell_angle_gamma    120

_symmetry_Int_Tables_number  165
_chemical_formula_structural  YH3
_chemical_formula_sum  Y6H8
_cell_volume  231.00783449241624
_cell_formula_units_Z  6
loop_
  _symmetry_equiv_pos_site_id
 _symmetry_equiv_pos_as_xyz
 1  'x, y, z'
loop_
 _atom_site_type_symbol
 _atom_site_label
 _atom_site_symmetry_multiplicity
 _atom_site_fract_x
 _atom_site_fract_y
 _atom_site_fract_z
 _atom_site_fract_occupancy
 H  H1  1  0.96753  0.32072  0.59050  1
 H  H2  1  0.66667  0.33333  0.31320  1
 H  H3  1  0.33333  0.66667  0.18680  1
 H  H4  1  0.33333  0.66667  0.68680  1
 H  H5  1  0.66667  0.33333  0.81320  1
 H  H6  1  0.00000  0.00000  0.25000  1
 H  H7  1  0.03247  0.67928  0.40950  1
 H  H8  1  0.32072  0.96753  0.90950  1
 H  H9  1  0.00000  0.00000  0.75000  1
 H  H10  1  0.03247  0.35319  0.90950  1
 H  H11  1  0.35319  0.03247  0.59050  1
 H  H12  1  0.32072  0.35319  0.40950  1
 H  H13  1  0.67928  0.64681  0.59050  1
 H  H14  1  0.67928  0.03247  0.09050  1
 H  H15  1  0.35319  0.32072  0.09050  1
 H  H16  1  0.96753  0.64681  0.09050  1
 H  H17  1  0.64681  0.96753  0.40950  1
 H  H18  1  0.64681  0.67928  0.90950  1
 Y  Y1  1  0.66243  0.00000  0.75000  1
 Y  Y2  1  0.33757  0.33757  0.75000  1
 Y  Y3  1  0.00000  0.66243  0.75000  1
 Y  Y4  1  0.33757  -0.00000  0.25000  1
 Y  Y5  1  0.66243  0.66243  0.25000  1
 Y  Y6  1  -0.00000  0.33757  0.25000  1
