CIF file written using JARVIS-Tools package.
data_CoCu4O8
_symmetry_space_group_name_H-M  'C2/m'
_cell_length_a       6.09861
_cell_length_b       6.09861
_cell_length_c       7.64521
_cell_angle_alpha    67.0391
_cell_angle_beta     42.7553
_cell_angle_gamma    55.3497

_symmetry_Int_Tables_number  12
_chemical_formula_structural  CoCu4O8
_chemical_formula_sum  CoCu4O8
_cell_volume  158.6073983332982
_cell_formula_units_Z  1
loop_
  _symmetry_equiv_pos_site_id
 _symmetry_equiv_pos_as_xyz
 1  'x, y, z'
loop_
 _atom_site_type_symbol
 _atom_site_label
 _atom_site_symmetry_multiplicity
 _atom_site_fract_x
 _atom_site_fract_y
 _atom_site_fract_z
 _atom_site_fract_occupancy
 Co  Co1  1  0.50000  0.50000  -0.00000  1
 Cu  Cu1  1  0.00000  0.50000  0.50000  1
 Cu  Cu2  1  0.00000  0.00000  0.00000  1
 Cu  Cu3  1  0.50000  0.00000  -0.00000  1
 Cu  Cu4  1  0.00000  0.50000  0.00000  1
 O  O1  1  0.48532  0.33190  0.84657  1
 O  O2  1  0.99560  0.31978  0.76658  1
 O  O3  1  0.55321  0.76218  0.76658  1
 O  O4  1  0.97233  0.83208  0.85975  1
 O  O5  1  0.02767  0.16792  0.14025  1
 O  O6  1  0.44679  0.23782  0.23342  1
 O  O7  1  0.00440  0.68022  0.23342  1
 O  O8  1  0.51468  0.66810  0.15343  1
