CIF file written using JARVIS-Tools package.
data_Na3AlH6
_symmetry_space_group_name_H-M  'P2_1/c'
_cell_length_a       5.33966
_cell_length_b       5.52708
_cell_length_c       9.35962
_cell_angle_alpha    90
_cell_angle_beta     124.763
_cell_angle_gamma    90

_symmetry_Int_Tables_number  14
_chemical_formula_structural  Na3AlH6
_chemical_formula_sum  Na6Al2H2
_cell_volume  226.9268163570892
_cell_formula_units_Z  2
loop_
  _symmetry_equiv_pos_site_id
 _symmetry_equiv_pos_as_xyz
 1  'x, y, z'
loop_
 _atom_site_type_symbol
 _atom_site_label
 _atom_site_symmetry_multiplicity
 _atom_site_fract_x
 _atom_site_fract_y
 _atom_site_fract_z
 _atom_site_fract_occupancy
 Al  Al1  1  0.00000  0.00000  0.00000  1
 Al  Al2  1  0.00000  0.50000  0.50000  1
 H  H1  1  0.31814  0.95269  0.21702  1
 H  H2  1  0.09746  0.76871  0.43700  1
 H  H3  1  0.68186  0.04731  0.78298  1
 H  H4  1  0.90254  0.23129  0.56300  1
 H  H5  1  0.09746  0.73129  0.93700  1
 H  H6  1  0.90254  0.26871  0.06300  1
 H  H7  1  0.22769  0.33061  0.45515  1
 H  H8  1  0.22769  0.16939  0.95515  1
 H  H9  1  0.31814  0.54731  0.71702  1
 H  H10  1  0.77231  0.83061  0.04485  1
 H  H11  1  0.68186  0.45269  0.28298  1
 H  H12  1  0.77231  0.66939  0.54485  1
 Na  Na1  1  0.24293  0.54687  0.25293  1
 Na  Na2  1  0.75707  0.04687  0.24707  1
 Na  Na3  1  0.75707  0.45313  0.74707  1
 Na  Na4  1  0.24293  0.95313  0.75293  1
 Na  Na5  1  0.50000  0.50000  0.00000  1
 Na  Na6  1  0.50000  0.00000  0.50000  1
