CIF file written using JARVIS-Tools package.
data_Li2CoNi3O8
_symmetry_space_group_name_H-M  'R-3m'
_cell_length_a       5.70845
_cell_length_b       5.70845
_cell_length_c       5.68362
_cell_angle_alpha    59.8555
_cell_angle_beta     120.145
_cell_angle_gamma    120

_symmetry_Int_Tables_number  166
_chemical_formula_structural  Li2CoNi3O8
_chemical_formula_sum  Li2CoNi3O8
_cell_volume  130.6756181192607
_cell_formula_units_Z  1
loop_
  _symmetry_equiv_pos_site_id
 _symmetry_equiv_pos_as_xyz
 1  'x, y, z'
loop_
 _atom_site_type_symbol
 _atom_site_label
 _atom_site_symmetry_multiplicity
 _atom_site_fract_x
 _atom_site_fract_y
 _atom_site_fract_z
 _atom_site_fract_occupancy
 Co  Co1  1  0.50000  0.50000  0.50000  1
 Li  Li1  1  0.87622  0.12378  0.62867  1
 Li  Li2  1  0.12378  0.87622  0.37133  1
 Ni  Ni1  1  0.50000  0.50000  -0.00000  1
 Ni  Ni2  1  0.50000  -0.00000  -0.00000  1
 Ni  Ni3  1  -0.00000  0.50000  -0.00000  1
 O  O1  1  0.73482  0.70851  0.76114  1
 O  O2  1  0.73482  0.26518  0.76114  1
 O  O3  1  0.26305  0.73695  0.78916  1
 O  O4  1  0.29149  0.26518  0.76114  1
 O  O5  1  0.70851  0.73482  0.23886  1
 O  O6  1  0.73695  0.26305  0.21084  1
 O  O7  1  0.26518  0.73482  0.23886  1
 O  O8  1  0.26518  0.29149  0.23886  1
