CIF file written using JARVIS-Tools package.
data_Li3Co4S8
_symmetry_space_group_name_H-M  'Cm'
_cell_length_a       6.73509
_cell_length_b       7.32323
_cell_length_c       6.73539
_cell_angle_alpha    62.4954
_cell_angle_beta     60.0014
_cell_angle_gamma    62.6229

_symmetry_Int_Tables_number  8
_chemical_formula_structural  Li3Co4S8
_chemical_formula_sum  Li3Co4S8
_cell_volume  243.5881579643146
_cell_formula_units_Z  1
loop_
  _symmetry_equiv_pos_site_id
 _symmetry_equiv_pos_as_xyz
 1  'x, y, z'
loop_
 _atom_site_type_symbol
 _atom_site_label
 _atom_site_symmetry_multiplicity
 _atom_site_fract_x
 _atom_site_fract_y
 _atom_site_fract_z
 _atom_site_fract_occupancy
 Co  Co1  1  0.99873  0.99912  0.00341  1
 Co  Co2  1  0.99672  0.99045  0.50878  1
 Co  Co3  1  0.50405  0.99045  0.50878  1
 Co  Co4  1  0.50405  0.99049  0.00142  1
 Li  Li1  1  0.35647  0.42654  0.35923  1
 Li  Li2  1  0.85776  0.42654  0.35923  1
 Li  Li3  1  0.35652  0.42653  0.86044  1
 S  S1  1  0.26765  0.19323  0.27147  1
 S  S2  1  0.76941  0.18759  0.27358  1
 S  S3  1  0.73031  0.80776  0.23372  1
 S  S4  1  0.22821  0.80776  0.23372  1
 S  S5  1  0.26977  0.18758  0.77323  1
 S  S6  1  0.76942  0.18758  0.77323  1
 S  S7  1  0.22819  0.80776  0.73585  1
 S  S8  1  0.73018  0.80388  0.73576  1
