CIF file written using JARVIS-Tools package.
data_Fe3O2F4
_symmetry_space_group_name_H-M  'P4_2/mnm'
_cell_length_a       4.68274
_cell_length_b       4.68274
_cell_length_c       9.22869
_cell_angle_alpha    90
_cell_angle_beta     90
_cell_angle_gamma    90

_symmetry_Int_Tables_number  136
_chemical_formula_structural  Fe3O2F4
_chemical_formula_sum  Fe6O4F8
_cell_volume  202.3671042439056
_cell_formula_units_Z  2
loop_
  _symmetry_equiv_pos_site_id
 _symmetry_equiv_pos_as_xyz
 1  'x, y, z'
loop_
 _atom_site_type_symbol
 _atom_site_label
 _atom_site_symmetry_multiplicity
 _atom_site_fract_x
 _atom_site_fract_y
 _atom_site_fract_z
 _atom_site_fract_occupancy
 F  F1  1  0.80566  0.30566  0.57594  1
 F  F2  1  0.30567  0.19433  0.07594  1
 F  F3  1  0.69434  0.80566  0.42406  1
 F  F4  1  0.69433  0.80567  0.07594  1
 F  F5  1  0.19433  0.69433  0.92406  1
 F  F6  1  0.19434  0.69434  0.57594  1
 F  F7  1  0.80567  0.30567  0.92406  1
 F  F8  1  0.30566  0.19434  0.42406  1
 Fe  Fe1  1  0.00000  0.50000  0.10881  1
 Fe  Fe2  1  0.50000  0.00000  0.60882  1
 Fe  Fe3  1  0.50000  0.00000  0.89119  1
 Fe  Fe4  1  0.50000  0.00000  0.25000  1
 Fe  Fe5  1  0.00000  0.50000  0.75000  1
 Fe  Fe6  1  0.00000  0.50000  0.39118  1
 O  O1  1  0.71359  0.78641  0.75000  1
 O  O2  1  0.78641  0.28641  0.25000  1
 O  O3  1  0.28641  0.21359  0.75000  1
 O  O4  1  0.21359  0.71359  0.25000  1
