CIF file written using JARVIS-Tools package.
data_LiCoSi2O6
_symmetry_space_group_name_H-M  'Cc'
_cell_length_a       5.14056
_cell_length_b       5.14058
_cell_length_c       10.2655
_cell_angle_alpha    103.596
_cell_angle_beta     103.596
_cell_angle_gamma    90.0043

_symmetry_Int_Tables_number  9
_chemical_formula_structural  LiCoSi2O6
_chemical_formula_sum  Li2Co2Si4O2
_cell_volume  255.84111156644295
_cell_formula_units_Z  2
loop_
  _symmetry_equiv_pos_site_id
 _symmetry_equiv_pos_as_xyz
 1  'x, y, z'
loop_
 _atom_site_type_symbol
 _atom_site_label
 _atom_site_symmetry_multiplicity
 _atom_site_fract_x
 _atom_site_fract_y
 _atom_site_fract_z
 _atom_site_fract_occupancy
 Co  Co1  1  0.71700  0.22815  0.50591  1
 Co  Co2  1  0.97815  0.96700  0.00591  1
 Li  Li1  1  0.11116  0.14244  0.33152  1
 Li  Li2  1  0.89244  0.36116  0.83152  1
 O  O1  1  0.09850  0.05065  0.86126  1
 O  O2  1  0.98458  0.39463  0.66301  1
 O  O3  1  0.14463  0.23458  0.16301  1
 O  O4  1  0.61838  0.01357  0.97575  1
 O  O5  1  0.04813  0.60945  0.01017  1
 O  O6  1  0.35945  0.29812  0.51017  1
 O  O7  1  0.40660  0.74497  0.71311  1
 O  O8  1  0.76357  0.86838  0.47575  1
 O  O9  1  0.48311  0.27485  0.77554  1
 O  O10  1  0.80066  0.34851  0.36126  1
 O  O11  1  0.49497  0.65660  0.21311  1
 O  O12  1  0.02486  0.73311  0.27554  1
 Si  Si1  1  0.76654  0.64894  0.33355  1
 Si  Si2  1  0.18003  0.54992  0.16146  1
 Si  Si3  1  0.29993  0.43003  0.66147  1
 Si  Si4  1  0.39894  0.01654  0.83355  1
