CIF file written using JARVIS-Tools package.
data_LiHfAu2
_symmetry_space_group_name_H-M  'R-3m'
_cell_length_a       10.6584
_cell_length_b       3.80766
_cell_length_c       3.80628
_cell_angle_alpha    59.9325
_cell_angle_beta     44.4502
_cell_angle_gamma    44.425

_symmetry_Int_Tables_number  166
_chemical_formula_structural  LiHfAu2
_chemical_formula_sum  LiHfAu2
_cell_volume  75.70763634264613
_cell_formula_units_Z  1
loop_
  _symmetry_equiv_pos_site_id
 _symmetry_equiv_pos_as_xyz
 1  'x, y, z'
loop_
 _atom_site_type_symbol
 _atom_site_label
 _atom_site_symmetry_multiplicity
 _atom_site_fract_x
 _atom_site_fract_y
 _atom_site_fract_z
 _atom_site_fract_occupancy
 Au  Au1  1  0.77683  -0.03567  -0.03546  1
 Au  Au2  1  0.22317  1.03567  1.03546  1
 Hf  Hf1  1  0.50000  0.00000  1.00000  1
 Li  Li1  1  1.00000  -0.00000  1.00000  1
