CIF file written using JARVIS-Tools package.
data_Li4B2O5
_symmetry_space_group_name_H-M  'C2/c'
_cell_length_a       5.87864
_cell_length_b       5.87864
_cell_length_c       6.23662
_cell_angle_alpha    75.4603
_cell_angle_beta     104.54
_cell_angle_gamma    106.729

_symmetry_Int_Tables_number  15
_chemical_formula_structural  Li4B2O5
_chemical_formula_sum  Li8B4O0
_cell_volume  196.0445504793036
_cell_formula_units_Z  2
loop_
  _symmetry_equiv_pos_site_id
 _symmetry_equiv_pos_as_xyz
 1  'x, y, z'
loop_
 _atom_site_type_symbol
 _atom_site_label
 _atom_site_symmetry_multiplicity
 _atom_site_fract_x
 _atom_site_fract_y
 _atom_site_fract_z
 _atom_site_fract_occupancy
 B  B1  1  0.05384  0.23896  0.85309  1
 B  B2  1  0.76104  0.94616  0.35309  1
 B  B3  1  0.23896  0.05384  0.64691  1
 B  B4  1  0.94616  0.76104  0.14691  1
 Li  Li1  1  0.33331  0.07152  0.27087  1
 Li  Li2  1  0.65991  0.38417  0.49641  1
 Li  Li3  1  0.66669  0.92848  0.72913  1
 Li  Li4  1  0.61583  0.34009  0.99641  1
 Li  Li5  1  0.38417  0.65991  0.00359  1
 Li  Li6  1  0.07152  0.33331  0.22913  1
 Li  Li7  1  0.34009  0.61583  0.50359  1
 Li  Li8  1  0.92848  0.66669  0.77087  1
 O  O1  1  0.73454  0.67634  0.00858  1
 O  O2  1  0.84394  0.31306  0.80959  1
 O  O3  1  0.31306  0.84394  0.69041  1
 O  O4  1  0.15606  0.68694  0.19041  1
 O  O5  1  0.26546  0.32366  0.99142  1
 O  O6  1  0.04429  0.04429  0.75000  1
 O  O7  1  0.67634  0.73454  0.49142  1
 O  O8  1  0.32366  0.26546  0.50858  1
 O  O9  1  0.95571  0.95571  0.25000  1
 O  O10  1  0.68694  0.15606  0.30959  1
