CIF file written using JARVIS-Tools package.
data_TiZnO2
_symmetry_space_group_name_H-M  'P-1'
_cell_length_a       2.90141
_cell_length_b       7.57154
_cell_length_c       8.47972
_cell_angle_alpha    82.0524
_cell_angle_beta     80.9849
_cell_angle_gamma    85.3865

_symmetry_Int_Tables_number  2
_chemical_formula_structural  TiZnO2
_chemical_formula_sum  Ti4Zn4O8
_cell_volume  181.88597911743364
_cell_formula_units_Z  4
loop_
  _symmetry_equiv_pos_site_id
 _symmetry_equiv_pos_as_xyz
 1  'x, y, z'
loop_
 _atom_site_type_symbol
 _atom_site_label
 _atom_site_symmetry_multiplicity
 _atom_site_fract_x
 _atom_site_fract_y
 _atom_site_fract_z
 _atom_site_fract_occupancy
 O  O1  1  0.90108  0.74166  0.59783  1
 O  O2  1  0.41077  0.36131  0.81575  1
 O  O3  1  0.58527  0.61860  0.21245  1
 O  O4  1  0.09497  0.23826  0.43037  1
 O  O5  1  -0.01707  0.10271  0.71400  1
 O  O6  1  0.68648  0.28985  0.15204  1
 O  O7  1  0.01311  0.87721  0.31420  1
 O  O8  1  0.30956  0.69006  0.87617  1
 Ti  Ti1  1  0.51551  0.29178  0.58752  1
 Ti  Ti2  1  0.10652  0.43395  0.25240  1
 Ti  Ti3  1  0.88952  0.54597  0.77580  1
 Ti  Ti4  1  0.48054  0.68814  0.44068  1
 Zn  Zn1  1  0.49860  0.06267  0.29664  1
 Zn  Zn2  1  0.49743  0.91725  0.73156  1
 Zn  Zn3  1  0.31877  0.84212  0.06703  1
 Zn  Zn4  1  0.67724  0.13779  0.96117  1
