CIF file written using JARVIS-Tools package.
data_Na3PO4
_symmetry_space_group_name_H-M  'Pmn2_1'
_cell_length_a       5.45965
_cell_length_b       5.89777
_cell_length_c       6.83832
_cell_angle_alpha    90
_cell_angle_beta     90.0008
_cell_angle_gamma    89.9918

_symmetry_Int_Tables_number  31
_chemical_formula_structural  Na3PO4
_chemical_formula_sum  Na6P2O8
_cell_volume  220.1919268535941
_cell_formula_units_Z  2
loop_
  _symmetry_equiv_pos_site_id
 _symmetry_equiv_pos_as_xyz
 1  'x, y, z'
loop_
 _atom_site_type_symbol
 _atom_site_label
 _atom_site_symmetry_multiplicity
 _atom_site_fract_x
 _atom_site_fract_y
 _atom_site_fract_z
 _atom_site_fract_occupancy
 Na  Na1  1  0.50605  0.93139  0.25495  1
 Na  Na2  1  0.50886  0.40056  -0.00090  1
 Na  Na3  1  0.00601  0.57454  0.24323  1
 Na  Na4  1  0.00601  0.57454  0.75496  1
 Na  Na5  1  0.50604  0.93139  0.74322  1
 Na  Na6  1  0.00893  0.10536  0.49907  1
 O  O1  1  0.58908  0.18350  0.49910  1
 O  O2  1  0.71413  0.06567  0.99909  1
 O  O3  1  0.59415  0.55795  0.68647  1
 O  O4  1  0.59416  0.55797  0.31174  1
 O  O5  1  0.08901  0.32240  0.99909  1
 O  O6  1  0.09420  0.94793  0.18645  1
 O  O7  1  0.09418  0.94795  0.81171  1
 O  O8  1  0.21414  0.44023  0.49909  1
 P  P1  1  -0.00138  0.07149  0.99909  1
 P  P2  1  0.49863  0.43442  0.49910  1
