CIF file written using JARVIS-Tools package.
data_Ba2YCo3O8
_symmetry_space_group_name_H-M  'P4/mmm'
_cell_length_a       3.87042
_cell_length_b       3.87042
_cell_length_c       11.7151
_cell_angle_alpha    90
_cell_angle_beta     90
_cell_angle_gamma    90

_symmetry_Int_Tables_number  123
_chemical_formula_structural  Ba2YCo3O8
_chemical_formula_sum  Ba2YCo3O8
_cell_volume  175.49357398176988
_cell_formula_units_Z  1
loop_
  _symmetry_equiv_pos_site_id
 _symmetry_equiv_pos_as_xyz
 1  'x, y, z'
loop_
 _atom_site_type_symbol
 _atom_site_label
 _atom_site_symmetry_multiplicity
 _atom_site_fract_x
 _atom_site_fract_y
 _atom_site_fract_z
 _atom_site_fract_occupancy
 Ba  Ba1  1  0.50000  0.50000  0.17170  1
 Ba  Ba2  1  0.50000  0.50000  0.82836  1
 Co  Co1  1  0.00000  0.00000  0.34699  1
 Co  Co2  1  0.00000  0.00000  0.00006  1
 Co  Co3  1  0.00000  0.00000  0.65301  1
 O  O1  1  0.00000  0.50000  0.37996  1
 O  O2  1  0.50000  0.00000  0.37996  1
 O  O3  1  0.50000  0.00000  0.00002  1
 O  O4  1  0.00000  0.00000  0.18557  1
 O  O5  1  0.00000  0.50000  0.61998  1
 O  O6  1  0.50000  0.00000  0.61998  1
 O  O7  1  0.00000  0.00000  0.81439  1
 O  O8  1  0.00000  0.50000  0.00002  1
 Y  Y1  1  0.50000  0.50000  0.49999  1
