CIF file written using JARVIS-Tools package.
data_Cr4OF11
_symmetry_space_group_name_H-M  'C2'
_cell_length_a       4.91004
_cell_length_b       5.23814
_cell_length_c       8.41734
_cell_angle_alpha    75.066
_cell_angle_beta     90
_cell_angle_gamma    62.0513

_symmetry_Int_Tables_number  5
_chemical_formula_structural  Cr4OF11
_chemical_formula_sum  Cr4OF
_cell_volume  182.92064360914128
_cell_formula_units_Z  1
loop_
  _symmetry_equiv_pos_site_id
 _symmetry_equiv_pos_as_xyz
 1  'x, y, z'
loop_
 _atom_site_type_symbol
 _atom_site_label
 _atom_site_symmetry_multiplicity
 _atom_site_fract_x
 _atom_site_fract_y
 _atom_site_fract_z
 _atom_site_fract_occupancy
 Cr  Cr1  1  0.74493  0.51785  0.25900  1
 Cr  Cr2  1  0.51278  0.98215  0.49100  1
 Cr  Cr3  1  0.25096  0.49612  0.74873  1
 Cr  Cr4  1  0.99708  0.00388  0.00127  1
 F  F1  1  0.80523  0.74727  0.69196  1
 F  F2  1  0.80250  0.75273  0.05804  1
 F  F3  1  0.73835  0.25783  0.12667  1
 F  F4  1  0.69562  0.24948  0.80521  1
 F  F5  1  0.69189  0.24942  0.44365  1
 F  F6  1  0.30317  0.74908  0.55309  1
 F  F7  1  0.30224  0.75092  0.19691  1
 F  F8  1  0.26270  0.75000  0.87500  1
 F  F9  1  0.24617  0.24217  0.62333  1
 F  F10  1  0.19130  0.25058  0.30635  1
 F  F11  1  0.19510  0.25052  0.94479  1
 O  O1  1  0.75999  0.75000  0.37500  1
