CIF file written using JARVIS-Tools package.
data_Li3MnAl2O6
_symmetry_space_group_name_H-M  'P-1'
_cell_length_a       5.2455
_cell_length_b       5.8501
_cell_length_c       7.76684
_cell_angle_alpha    89.5817
_cell_angle_beta     100.006
_cell_angle_gamma    90.6889

_symmetry_Int_Tables_number  2
_chemical_formula_structural  Li3MnAl2O6
_chemical_formula_sum  Li6Mn2Al4O2
_cell_volume  234.69300973754162
_cell_formula_units_Z  2
loop_
  _symmetry_equiv_pos_site_id
 _symmetry_equiv_pos_as_xyz
 1  'x, y, z'
loop_
 _atom_site_type_symbol
 _atom_site_label
 _atom_site_symmetry_multiplicity
 _atom_site_fract_x
 _atom_site_fract_y
 _atom_site_fract_z
 _atom_site_fract_occupancy
 Al  Al1  1  0.67151  0.66730  0.08476  1
 Al  Al2  1  0.84074  0.82381  0.41762  1
 Al  Al3  1  0.15926  0.17619  0.58238  1
 Al  Al4  1  0.32849  0.33270  0.91524  1
 Li  Li1  1  0.83525  0.16459  0.91752  1
 Li  Li2  1  0.16475  0.83541  0.08248  1
 Li  Li3  1  0.67109  0.34580  0.59889  1
 Li  Li4  1  0.32891  0.65420  0.40111  1
 Li  Li5  1  -0.00256  0.66038  0.75698  1
 Li  Li6  1  0.00256  0.33962  0.24302  1
 Mn  Mn1  1  0.50486  0.82914  0.73899  1
 Mn  Mn2  1  0.49514  0.17086  0.26101  1
 O  O1  1  0.32052  0.31980  0.42632  1
 O  O2  1  0.02454  0.32296  0.74854  1
 O  O3  1  0.65428  0.35262  0.07874  1
 O  O4  1  0.34572  0.64738  0.92126  1
 O  O5  1  0.97546  0.67704  0.25146  1
 O  O6  1  0.52534  0.82994  0.24239  1
 O  O7  1  0.80133  0.82213  0.91439  1
 O  O8  1  0.17115  0.86013  0.57759  1
 O  O9  1  0.47466  0.17006  0.75761  1
 O  O10  1  0.19867  0.17787  0.08561  1
 O  O11  1  0.67948  0.68020  0.57368  1
 O  O12  1  0.82885  0.13987  0.42241  1
