CIF file written using JARVIS-Tools package.
data_YbCuBi
_symmetry_space_group_name_H-M  'P6_3mc'
_cell_length_a       4.62576
_cell_length_b       4.62576
_cell_length_c       7.54981
_cell_angle_alpha    90
_cell_angle_beta     90
_cell_angle_gamma    120

_symmetry_Int_Tables_number  186
_chemical_formula_structural  YbCuBi
_chemical_formula_sum  Yb2Cu2Bi2
_cell_volume  139.90499673025639
_cell_formula_units_Z  2
loop_
  _symmetry_equiv_pos_site_id
 _symmetry_equiv_pos_as_xyz
 1  'x, y, z'
loop_
 _atom_site_type_symbol
 _atom_site_label
 _atom_site_symmetry_multiplicity
 _atom_site_fract_x
 _atom_site_fract_y
 _atom_site_fract_z
 _atom_site_fract_occupancy
 Bi  Bi1  1  0.33333  0.66667  0.28351  1
 Bi  Bi2  1  0.66667  0.33333  0.78351  1
 Cu  Cu1  1  0.66667  0.33333  0.17738  1
 Cu  Cu2  1  0.33333  0.66667  0.67738  1
 Yb  Yb1  1  0.00000  0.00000  0.01391  1
 Yb  Yb2  1  0.00000  0.00000  0.51391  1
