CIF file written using JARVIS-Tools package.
data_KNdO2
_symmetry_space_group_name_H-M  'P6_3/mmc'
_cell_length_a       3.62379
_cell_length_b       3.62401
_cell_length_c       12.5539
_cell_angle_alpha    90.0103
_cell_angle_beta     90.0039
_cell_angle_gamma    120

_symmetry_Int_Tables_number  194
_chemical_formula_structural  KNdO2
_chemical_formula_sum  K2Nd2O4
_cell_volume  142.7776317490951
_cell_formula_units_Z  2
loop_
  _symmetry_equiv_pos_site_id
 _symmetry_equiv_pos_as_xyz
 1  'x, y, z'
loop_
 _atom_site_type_symbol
 _atom_site_label
 _atom_site_symmetry_multiplicity
 _atom_site_fract_x
 _atom_site_fract_y
 _atom_site_fract_z
 _atom_site_fract_occupancy
 K  K1  1  0.66665  0.33326  0.25000  1
 K  K2  1  0.33335  0.66674  0.75000  1
 Nd  Nd1  1  0.00000  0.00000  0.00000  1
 Nd  Nd2  1  0.00000  0.00000  0.50000  1
 O  O1  1  0.66673  0.33342  0.59675  1
 O  O2  1  0.66659  0.33324  0.90324  1
 O  O3  1  0.33327  0.66658  0.40325  1
 O  O4  1  0.33341  0.66676  0.09676  1
