CIF file written using JARVIS-Tools package.
data_Al2CuCl8
_symmetry_space_group_name_H-M  'P2_1/c'
_cell_length_a       6.36267
_cell_length_b       7.345
_cell_length_c       12.1128
_cell_angle_alpha    90
_cell_angle_beta     93.4275
_cell_angle_gamma    90

_symmetry_Int_Tables_number  14
_chemical_formula_structural  Al2CuCl8
_chemical_formula_sum  Al4Cu2Cl6
_cell_volume  565.0661120300641
_cell_formula_units_Z  2
loop_
  _symmetry_equiv_pos_site_id
 _symmetry_equiv_pos_as_xyz
 1  'x, y, z'
loop_
 _atom_site_type_symbol
 _atom_site_label
 _atom_site_symmetry_multiplicity
 _atom_site_fract_x
 _atom_site_fract_y
 _atom_site_fract_z
 _atom_site_fract_occupancy
 Al  Al1  1  0.81064  0.73604  0.81249  1
 Al  Al2  1  0.81064  0.76396  0.31249  1
 Al  Al3  1  0.18936  0.26396  0.18751  1
 Al  Al4  1  0.18936  0.23604  0.68751  1
 Cl  Cl1  1  0.12926  0.73893  0.39670  1
 Cl  Cl2  1  0.87074  0.23893  0.10330  1
 Cl  Cl3  1  0.69037  0.98971  0.88639  1
 Cl  Cl4  1  0.30963  0.48971  0.61361  1
 Cl  Cl5  1  0.12926  0.76107  0.89670  1
 Cl  Cl6  1  0.69037  0.51029  0.38639  1
 Cl  Cl7  1  0.30963  0.01029  0.11361  1
 Cl  Cl8  1  0.83064  0.77055  0.63878  1
 Cl  Cl9  1  0.16936  0.22945  0.36122  1
 Cl  Cl10  1  0.16936  0.27055  0.86122  1
 Cl  Cl11  1  0.64657  0.50498  0.86264  1
 Cl  Cl12  1  0.35343  0.00498  0.63736  1
 Cl  Cl13  1  0.35343  0.49502  0.13736  1
 Cl  Cl14  1  0.64657  -0.00498  0.36264  1
 Cl  Cl15  1  0.83064  0.72945  0.13878  1
 Cl  Cl16  1  0.87074  0.26107  0.60330  1
 Cu  Cu1  1  0.00000  0.00000  0.00000  1
 Cu  Cu2  1  -0.00000  0.50000  0.50000  1
