CIF file written using JARVIS-Tools package.
data_FeCl3
_symmetry_space_group_name_H-M  'R-3'
_cell_length_a       6.52399
_cell_length_b       6.52399
_cell_length_c       6.52399
_cell_angle_alpha    52.7149
_cell_angle_beta     52.7149
_cell_angle_gamma    52.7149

_symmetry_Int_Tables_number  148
_chemical_formula_structural  FeCl3
_chemical_formula_sum  Fe2Cl6
_cell_volume  162.78950431288953
_cell_formula_units_Z  2
loop_
  _symmetry_equiv_pos_site_id
 _symmetry_equiv_pos_as_xyz
 1  'x, y, z'
loop_
 _atom_site_type_symbol
 _atom_site_label
 _atom_site_symmetry_multiplicity
 _atom_site_fract_x
 _atom_site_fract_y
 _atom_site_fract_z
 _atom_site_fract_occupancy
 Cl  Cl1  1  0.56773  0.92455  0.27921  1
 Cl  Cl2  1  0.92455  0.27921  0.56773  1
 Cl  Cl3  1  0.72079  0.43227  0.07545  1
 Cl  Cl4  1  0.07545  0.72079  0.43227  1
 Cl  Cl5  1  0.43227  0.07545  0.72079  1
 Cl  Cl6  1  0.27921  0.56773  0.92455  1
 Fe  Fe1  1  0.66654  0.66654  0.66654  1
 Fe  Fe2  1  0.33346  0.33346  0.33346  1
