CIF file written using JARVIS-Tools package.
data_Sr3TeO6
_symmetry_space_group_name_H-M  'R-3'
_cell_length_a       5.91991
_cell_length_b       5.91991
_cell_length_c       5.91991
_cell_angle_alpha    61.8796
_cell_angle_beta     61.8796
_cell_angle_gamma    61.8797

_symmetry_Int_Tables_number  148
_chemical_formula_structural  Sr3TeO6
_chemical_formula_sum  Sr3TeO6
_cell_volume  152.87327968075525
_cell_formula_units_Z  1
loop_
  _symmetry_equiv_pos_site_id
 _symmetry_equiv_pos_as_xyz
 1  'x, y, z'
loop_
 _atom_site_type_symbol
 _atom_site_label
 _atom_site_symmetry_multiplicity
 _atom_site_fract_x
 _atom_site_fract_y
 _atom_site_fract_z
 _atom_site_fract_occupancy
 O  O1  1  0.01830  0.83861  0.35448  1
 O  O2  1  0.46139  0.94552  0.28170  1
 O  O3  1  0.28170  0.46139  0.94552  1
 O  O4  1  0.83861  0.35448  0.01830  1
 O  O5  1  0.35448  0.01830  0.83861  1
 O  O6  1  0.94552  0.28170  0.46139  1
 Sr  Sr1  1  0.65000  0.65000  0.65000  1
 Sr  Sr2  1  0.38893  0.38893  0.38893  1
 Sr  Sr3  1  0.91108  0.91108  0.91108  1
 Te  Te1  1  0.15000  0.15000  0.15000  1
