CIF file written using JARVIS-Tools package.
data_Li4Fe5Co3O16
_symmetry_space_group_name_H-M  'Cm'
_cell_length_a       5.62296
_cell_length_b       5.60727
_cell_length_c       9.07673
_cell_angle_alpha    90.0011
_cell_angle_beta     89.9057
_cell_angle_gamma    119.907

_symmetry_Int_Tables_number  8
_chemical_formula_structural  Li4Fe5Co3O16
_chemical_formula_sum  Li4Fe5Co3O6
_cell_volume  248.07485059454632
_cell_formula_units_Z  1
loop_
  _symmetry_equiv_pos_site_id
 _symmetry_equiv_pos_as_xyz
 1  'x, y, z'
loop_
 _atom_site_type_symbol
 _atom_site_label
 _atom_site_symmetry_multiplicity
 _atom_site_fract_x
 _atom_site_fract_y
 _atom_site_fract_z
 _atom_site_fract_occupancy
 Co  Co1  1  0.65915  0.82959  0.28793  1
 Co  Co2  1  0.82770  0.16993  0.78825  1
 Co  Co3  1  0.82770  0.65778  0.78825  1
 Fe  Fe1  1  0.17013  0.34491  0.28656  1
 Fe  Fe2  1  0.66822  0.33412  0.51342  1
 Fe  Fe3  1  0.34358  0.17180  0.78885  1
 Fe  Fe4  1  0.33249  0.66625  0.00829  1
 Fe  Fe5  1  0.17013  0.82524  0.28656  1
 Li  Li1  1  0.66355  0.33178  0.10557  1
 Li  Li2  1  0.99946  0.99975  0.50367  1
 Li  Li3  1  0.99747  0.99874  0.00162  1
 Li  Li4  1  0.33336  0.66670  0.60757  1
 O  O1  1  0.83654  0.17223  0.40018  1
 O  O2  1  0.83654  0.66434  0.40018  1
 O  O3  1  0.03777  0.51890  0.15424  1
 O  O4  1  0.66543  0.33273  0.89717  1
 O  O5  1  0.00221  0.00111  0.69454  1
 O  O6  1  0.00212  0.00108  0.19333  1
 O  O7  1  0.95877  0.47939  0.65910  1
 O  O8  1  0.16995  0.83479  0.89840  1
 O  O9  1  0.33473  0.16738  0.39836  1
 O  O10  1  0.47681  0.95704  0.15858  1
 O  O11  1  0.47682  0.51980  0.15858  1
 O  O12  1  0.33369  0.66686  0.39787  1
 O  O13  1  0.52083  0.47876  0.65746  1
 O  O14  1  0.66407  0.83204  0.90175  1
 O  O15  1  0.52083  0.04210  0.65746  1
 O  O16  1  0.16995  0.33518  0.89841  1
