CIF file written using JARVIS-Tools package.
data_CrO3
_symmetry_space_group_name_H-M  'Pnma'
_cell_length_a       5.10132
_cell_length_b       5.65463
_cell_length_c       7.94025
_cell_angle_alpha    90
_cell_angle_beta     90
_cell_angle_gamma    90

_symmetry_Int_Tables_number  62
_chemical_formula_structural  CrO3
_chemical_formula_sum  Cr4O2
_cell_volume  229.04520969123686
_cell_formula_units_Z  4
loop_
  _symmetry_equiv_pos_site_id
 _symmetry_equiv_pos_as_xyz
 1  'x, y, z'
loop_
 _atom_site_type_symbol
 _atom_site_label
 _atom_site_symmetry_multiplicity
 _atom_site_fract_x
 _atom_site_fract_y
 _atom_site_fract_z
 _atom_site_fract_occupancy
 Cr  Cr1  1  0.56103  0.26230  0.31129  1
 Cr  Cr2  1  0.06103  0.23770  0.81129  1
 Cr  Cr3  1  0.93897  0.76230  0.31129  1
 Cr  Cr4  1  0.43897  0.73770  0.81129  1
 O  O1  1  0.87989  0.20245  0.64996  1
 O  O2  1  0.31110  0.02845  0.81129  1
 O  O3  1  0.37989  0.29755  0.47261  1
 O  O4  1  0.87989  0.20245  0.97261  1
 O  O5  1  0.81110  0.47155  0.31129  1
 O  O6  1  0.37989  0.29755  0.14996  1
 O  O7  1  0.62011  0.70245  0.64996  1
 O  O8  1  0.18890  0.52845  0.81129  1
 O  O9  1  0.12011  0.79755  0.47261  1
 O  O10  1  0.62011  0.70245  0.97261  1
 O  O11  1  0.68890  0.97155  0.31129  1
 O  O12  1  0.12011  0.79755  0.14996  1
