CIF file written using JARVIS-Tools package.
data_HgMoO4
_symmetry_space_group_name_H-M  'C2/c'
_cell_length_a       5.18951
_cell_length_b       6.13718
_cell_length_c       6.47725
_cell_angle_alpha    118.278
_cell_angle_beta     109.138
_cell_angle_gamma    90

_symmetry_Int_Tables_number  15
_chemical_formula_structural  HgMoO4
_chemical_formula_sum  Hg2Mo2O8
_cell_volume  168.61727707061928
_cell_formula_units_Z  2
loop_
  _symmetry_equiv_pos_site_id
 _symmetry_equiv_pos_as_xyz
 1  'x, y, z'
loop_
 _atom_site_type_symbol
 _atom_site_label
 _atom_site_symmetry_multiplicity
 _atom_site_fract_x
 _atom_site_fract_y
 _atom_site_fract_z
 _atom_site_fract_occupancy
 Hg  Hg1  1  0.50000  0.50000  0.50000  1
 Hg  Hg2  1  -0.00000  0.00000  0.50000  1
 Mo  Mo1  1  0.75000  0.19067  -0.00000  1
 Mo  Mo2  1  0.25000  0.80933  0.00000  1
 O  O1  1  0.96826  0.47762  0.22641  1
 O  O2  1  0.53174  0.25122  0.77359  1
 O  O3  1  0.03174  0.52238  0.77359  1
 O  O4  1  0.46826  0.74878  0.22641  1
 O  O5  1  0.03158  0.00623  0.19388  1
 O  O6  1  0.46842  0.81235  0.80612  1
 O  O7  1  0.96842  0.99377  0.80612  1
 O  O8  1  0.53158  0.18765  0.19388  1
