CIF file written using JARVIS-Tools package.
data_Sb4Cl2O5
_symmetry_space_group_name_H-M  'P2_1/c'
_cell_length_a       6.26572
_cell_length_b       5.14949
_cell_length_c       13.6858
_cell_angle_alpha    90
_cell_angle_beta     96.6232
_cell_angle_gamma    90

_symmetry_Int_Tables_number  14
_chemical_formula_structural  Sb4Cl2O5
_chemical_formula_sum  Sb8Cl4O0
_cell_volume  438.6294165772283
_cell_formula_units_Z  2
loop_
  _symmetry_equiv_pos_site_id
 _symmetry_equiv_pos_as_xyz
 1  'x, y, z'
loop_
 _atom_site_type_symbol
 _atom_site_label
 _atom_site_symmetry_multiplicity
 _atom_site_fract_x
 _atom_site_fract_y
 _atom_site_fract_z
 _atom_site_fract_occupancy
 Cl  Cl1  1  0.49790  0.70805  0.88311  1
 Cl  Cl2  1  0.49790  0.79195  0.38311  1
 Cl  Cl3  1  0.50210  0.29195  0.11689  1
 Cl  Cl4  1  0.50210  0.20805  0.61689  1
 O  O1  1  0.92045  0.16647  0.28964  1
 O  O2  1  0.92045  0.33353  0.78964  1
 O  O3  1  0.07955  0.83353  0.71036  1
 O  O4  1  0.07089  0.99321  0.91763  1
 O  O5  1  0.92911  0.49321  0.58237  1
 O  O6  1  0.92911  0.00679  0.08237  1
 O  O7  1  0.07089  0.50679  0.41763  1
 O  O8  1  0.00000  0.50000  0.00000  1
 O  O9  1  -0.00000  0.00000  0.50000  1
 O  O10  1  0.07955  0.66647  0.21036  1
 Sb  Sb1  1  0.19106  0.77854  0.04934  1
 Sb  Sb2  1  0.80894  0.27854  0.45066  1
 Sb  Sb3  1  0.80894  0.22146  0.95066  1
 Sb  Sb4  1  0.19106  0.72146  0.54934  1
 Sb  Sb5  1  0.79421  0.87930  0.20242  1
 Sb  Sb6  1  0.20579  0.37930  0.29758  1
 Sb  Sb7  1  0.20579  0.12070  0.79758  1
 Sb  Sb8  1  0.79421  0.62070  0.70242  1
