CIF file written using JARVIS-Tools package.
data_CaGa2O4
_symmetry_space_group_name_H-M  'Pnma'
_cell_length_a       3.02163
_cell_length_b       9.19353
_cell_length_c       10.6586
_cell_angle_alpha    90
_cell_angle_beta     90
_cell_angle_gamma    90

_symmetry_Int_Tables_number  62
_chemical_formula_structural  CaGa2O4
_chemical_formula_sum  Ca4Ga8O6
_cell_volume  296.09050921503854
_cell_formula_units_Z  4
loop_
  _symmetry_equiv_pos_site_id
 _symmetry_equiv_pos_as_xyz
 1  'x, y, z'
loop_
 _atom_site_type_symbol
 _atom_site_label
 _atom_site_symmetry_multiplicity
 _atom_site_fract_x
 _atom_site_fract_y
 _atom_site_fract_z
 _atom_site_fract_occupancy
 Ca  Ca1  1  0.75000  0.75742  0.65454  1
 Ca  Ca2  1  0.25000  0.24258  0.34546  1
 Ca  Ca3  1  0.75000  0.25742  0.84546  1
 Ca  Ca4  1  0.25000  0.74258  0.15454  1
 Ga  Ga1  1  0.75000  0.43513  0.61164  1
 Ga  Ga2  1  0.25000  0.06487  0.11164  1
 Ga  Ga3  1  0.25000  0.56487  0.38836  1
 Ga  Ga4  1  0.75000  0.93513  0.88836  1
 Ga  Ga5  1  0.75000  0.41762  0.10436  1
 Ga  Ga6  1  0.75000  0.91762  0.39564  1
 Ga  Ga7  1  0.25000  0.08238  0.60436  1
 Ga  Ga8  1  0.25000  0.58238  0.89564  1
 O  O1  1  0.75000  0.02704  0.71658  1
 O  O2  1  0.25000  0.08271  0.92783  1
 O  O3  1  0.75000  0.70437  0.33766  1
 O  O4  1  0.25000  0.58271  0.57217  1
 O  O5  1  0.75000  0.41729  0.42783  1
 O  O6  1  0.25000  0.97296  0.28342  1
 O  O7  1  0.75000  0.91729  0.07217  1
 O  O8  1  0.25000  0.79563  0.83766  1
 O  O9  1  0.75000  0.61813  0.02281  1
 O  O10  1  0.25000  0.88187  0.52281  1
 O  O11  1  0.75000  0.11813  0.47719  1
 O  O12  1  0.75000  0.20437  0.16234  1
 O  O13  1  0.25000  0.47296  0.21658  1
 O  O14  1  0.25000  0.38187  0.97719  1
 O  O15  1  0.75000  0.52704  0.78342  1
 O  O16  1  0.25000  0.29563  0.66234  1
