CIF file written using JARVIS-Tools package.
data_Rb2CoI4
_symmetry_space_group_name_H-M  'P2_1/m'
_cell_length_a       7.50464
_cell_length_b       7.95572
_cell_length_c       10.3271
_cell_angle_alpha    90
_cell_angle_beta     109.821
_cell_angle_gamma    90

_symmetry_Int_Tables_number  11
_chemical_formula_structural  Rb2CoI4
_chemical_formula_sum  Rb4Co2I8
_cell_volume  580.0520547350973
_cell_formula_units_Z  2
loop_
  _symmetry_equiv_pos_site_id
 _symmetry_equiv_pos_as_xyz
 1  'x, y, z'
loop_
 _atom_site_type_symbol
 _atom_site_label
 _atom_site_symmetry_multiplicity
 _atom_site_fract_x
 _atom_site_fract_y
 _atom_site_fract_z
 _atom_site_fract_occupancy
 Co  Co1  1  0.69312  0.75000  0.78387  1
 Co  Co2  1  0.30688  0.25000  0.21613  1
 I  I1  1  0.13998  0.25000  0.95080  1
 I  I2  1  0.86002  0.75000  0.04920  1
 I  I3  1  0.08510  0.25000  0.35914  1
 I  I4  1  0.91490  0.75000  0.64086  1
 I  I5  1  0.52919  -0.00497  0.28183  1
 I  I6  1  0.47081  0.49503  0.71817  1
 I  I7  1  0.47081  0.00497  0.71817  1
 I  I8  1  0.52919  0.50497  0.28183  1
 Rb  Rb1  1  0.69881  0.25000  0.03614  1
 Rb  Rb2  1  0.30119  0.75000  0.96386  1
 Rb  Rb3  1  0.19509  0.75000  0.40923  1
 Rb  Rb4  1  0.80491  0.25000  0.59077  1
