CIF file written using JARVIS-Tools package.
data_Fe2RhS4
_symmetry_space_group_name_H-M  'Imma'
_cell_length_a       6.71847
_cell_length_b       6.63541
_cell_length_c       6.71847
_cell_angle_alpha    60.4082
_cell_angle_beta     60.9277
_cell_angle_gamma    60.4081

_symmetry_Int_Tables_number  74
_chemical_formula_structural  Fe2RhS4
_chemical_formula_sum  Fe4Rh2S8
_cell_volume  214.55347130039885
_cell_formula_units_Z  2
loop_
  _symmetry_equiv_pos_site_id
 _symmetry_equiv_pos_as_xyz
 1  'x, y, z'
loop_
 _atom_site_type_symbol
 _atom_site_label
 _atom_site_symmetry_multiplicity
 _atom_site_fract_x
 _atom_site_fract_y
 _atom_site_fract_z
 _atom_site_fract_occupancy
 Fe  Fe1  1  0.00139  0.99861  0.00139  1
 Fe  Fe2  1  0.24861  0.25139  0.24861  1
 Fe  Fe3  1  0.62500  0.12500  0.62500  1
 Fe  Fe4  1  0.62500  0.62500  0.62500  1
 Rh  Rh1  1  0.12500  0.62500  0.62500  1
 Rh  Rh2  1  0.62500  0.62500  0.12500  1
 S  S1  1  0.38485  0.36534  0.38485  1
 S  S2  1  0.39209  0.37345  0.86100  1
 S  S3  1  0.38485  0.86497  0.38485  1
 S  S4  1  0.86100  0.37345  0.39209  1
 S  S5  1  0.38900  0.87655  0.85791  1
 S  S6  1  0.85791  0.87655  0.38900  1
 S  S7  1  0.86515  0.38503  0.86515  1
 S  S8  1  0.86515  0.88466  0.86515  1
