CIF file written using JARVIS-Tools package.
data_Li4B2O5
_symmetry_space_group_name_H-M  'P-1'
_cell_length_a       4.88428
_cell_length_b       6.91645
_cell_length_c       6.92248
_cell_angle_alpha    61.6314
_cell_angle_beta     69.9899
_cell_angle_gamma    73.7469

_symmetry_Int_Tables_number  2
_chemical_formula_structural  Li4B2O5
_chemical_formula_sum  Li8B4O0
_cell_volume  191.39284926345334
_cell_formula_units_Z  2
loop_
  _symmetry_equiv_pos_site_id
 _symmetry_equiv_pos_as_xyz
 1  'x, y, z'
loop_
 _atom_site_type_symbol
 _atom_site_label
 _atom_site_symmetry_multiplicity
 _atom_site_fract_x
 _atom_site_fract_y
 _atom_site_fract_z
 _atom_site_fract_occupancy
 B  B1  1  0.11621  0.13906  0.91673  1
 B  B2  1  0.54692  0.72485  0.53267  1
 B  B3  1  0.45308  0.27515  0.46733  1
 B  B4  1  0.88379  0.86094  0.08327  1
 Li  Li1  1  0.02380  0.57431  0.79580  1
 Li  Li2  1  0.48871  0.31366  0.02510  1
 Li  Li3  1  0.97620  0.42569  0.20420  1
 Li  Li4  1  0.98464  0.96882  0.69330  1
 Li  Li5  1  0.01536  0.03118  0.30670  1
 Li  Li6  1  0.79366  0.32934  0.66302  1
 Li  Li7  1  0.51129  0.68634  0.97490  1
 Li  Li8  1  0.20634  0.67066  0.33698  1
 O  O1  1  0.86605  0.72297  0.99305  1
 O  O2  1  0.21220  0.22870  0.66016  1
 O  O3  1  0.74109  0.20155  0.48383  1
 O  O4  1  0.78780  0.77130  0.33984  1
 O  O5  1  0.13395  0.27703  0.00695  1
 O  O6  1  0.62522  0.58650  0.73461  1
 O  O7  1  0.79132  0.10261  0.96262  1
 O  O8  1  0.20868  0.89739  0.03738  1
 O  O9  1  0.37478  0.41350  0.26539  1
 O  O10  1  0.25891  0.79845  0.51617  1
