CIF file written using JARVIS-Tools package.
data_Mn3CrO8
_symmetry_space_group_name_H-M  'P6_3mc'
_cell_length_a       5.6803
_cell_length_b       5.6803
_cell_length_c       8.72598
_cell_angle_alpha    90
_cell_angle_beta     90
_cell_angle_gamma    120

_symmetry_Int_Tables_number  186
_chemical_formula_structural  Mn3CrO8
_chemical_formula_sum  Mn6Cr2O6
_cell_volume  243.82943264487074
_cell_formula_units_Z  2
loop_
  _symmetry_equiv_pos_site_id
 _symmetry_equiv_pos_as_xyz
 1  'x, y, z'
loop_
 _atom_site_type_symbol
 _atom_site_label
 _atom_site_symmetry_multiplicity
 _atom_site_fract_x
 _atom_site_fract_y
 _atom_site_fract_z
 _atom_site_fract_occupancy
 Cr  Cr1  1  0.33333  0.66667  0.49177  1
 Cr  Cr2  1  0.66667  0.33333  0.99177  1
 Mn  Mn1  1  0.16778  0.33555  0.21160  1
 Mn  Mn2  1  0.66445  0.83222  0.21160  1
 Mn  Mn3  1  0.16778  0.83222  0.21160  1
 Mn  Mn4  1  0.83222  0.16778  0.71160  1
 Mn  Mn5  1  0.33556  0.16778  0.71160  1
 Mn  Mn6  1  0.83222  0.66444  0.71160  1
 O  O1  1  0.17021  0.34041  0.59954  1
 O  O2  1  0.47906  0.52094  0.33838  1
 O  O3  1  0.33333  0.66667  0.09891  1
 O  O4  1  0.52094  0.47906  0.83838  1
 O  O5  1  0.00000  0.00000  0.81862  1
 O  O6  1  0.65959  0.82979  0.59954  1
 O  O7  1  0.00000  0.00000  0.31862  1
 O  O8  1  0.52094  0.04187  0.83838  1
 O  O9  1  0.82979  0.17021  0.09954  1
 O  O10  1  0.17021  0.82979  0.59954  1
 O  O11  1  0.04187  0.52094  0.33838  1
 O  O12  1  0.95813  0.47906  0.83838  1
 O  O13  1  0.66667  0.33333  0.59891  1
 O  O14  1  0.34041  0.17021  0.09954  1
 O  O15  1  0.47906  0.95813  0.33838  1
 O  O16  1  0.82979  0.65959  0.09954  1
