CIF file written using JARVIS-Tools package.
data_Ba9Nd2S12
_symmetry_space_group_name_H-M  'C2/m'
_cell_length_a       7.70911
_cell_length_b       7.70906
_cell_length_c       14.6573
_cell_angle_alpha    95.0274
_cell_angle_beta     95.0277
_cell_angle_gamma    120

_symmetry_Int_Tables_number  12
_chemical_formula_structural  Ba9Nd2S12
_chemical_formula_sum  Ba9Nd2S2
_cell_volume  742.7076445126825
_cell_formula_units_Z  1
loop_
  _symmetry_equiv_pos_site_id
 _symmetry_equiv_pos_as_xyz
 1  'x, y, z'
loop_
 _atom_site_type_symbol
 _atom_site_label
 _atom_site_symmetry_multiplicity
 _atom_site_fract_x
 _atom_site_fract_y
 _atom_site_fract_z
 _atom_site_fract_occupancy
 Ba  Ba1  1  0.75876  0.75915  0.23850  1
 Ba  Ba2  1  0.50044  0.50083  0.50019  1
 Ba  Ba3  1  0.24210  0.24250  0.76187  1
 Ba  Ba4  1  0.60032  0.92158  0.76214  1
 Ba  Ba5  1  0.07968  0.40093  0.23823  1
 Ba  Ba6  1  0.83094  0.17033  0.50019  1
 Ba  Ba7  1  0.40054  0.08007  0.23823  1
 Ba  Ba8  1  0.16994  0.83133  0.50019  1
 Ba  Ba9  1  0.92118  0.60073  0.76214  1
 Nd  Nd1  1  0.33378  0.66746  0.00019  1
 Nd  Nd2  1  0.66706  0.33418  0.00019  1
 S  S1  1  0.54431  0.21187  0.63316  1
 S  S2  1  0.12432  0.12471  0.37375  1
 S  S3  1  0.67193  0.03711  0.10902  1
 S  S4  1  0.87655  0.87695  0.62662  1
 S  S5  1  0.40132  0.40172  0.10899  1
 S  S6  1  0.96413  0.32932  0.89135  1
 S  S7  1  0.03672  0.67233  0.10902  1
 S  S8  1  0.21147  0.54471  0.63316  1
 S  S9  1  0.78941  0.45695  0.36721  1
 S  S10  1  0.45656  0.78979  0.36721  1
 S  S11  1  0.59954  0.59994  0.89138  1
 S  S12  1  0.32892  0.96453  0.89135  1
