CIF file written using JARVIS-Tools package.
data_YMo3O8
_symmetry_space_group_name_H-M  'Cm'
_cell_length_a       5.19709
_cell_length_b       5.76136
_cell_length_c       5.76149
_cell_angle_alpha    60.6687
_cell_angle_beta     90.5948
_cell_angle_gamma    90.596

_symmetry_Int_Tables_number  8
_chemical_formula_structural  YMo3O8
_chemical_formula_sum  YMo3O8
_cell_volume  150.38546656280096
_cell_formula_units_Z  1
loop_
  _symmetry_equiv_pos_site_id
 _symmetry_equiv_pos_as_xyz
 1  'x, y, z'
loop_
 _atom_site_type_symbol
 _atom_site_label
 _atom_site_symmetry_multiplicity
 _atom_site_fract_x
 _atom_site_fract_y
 _atom_site_fract_z
 _atom_site_fract_occupancy
 Mo  Mo1  1  0.74232  0.16370  0.69100  1
 Mo  Mo2  1  0.74688  0.14719  0.14754  1
 Mo  Mo3  1  0.74231  0.69065  0.16404  1
 O  O1  1  0.54705  0.48619  0.01481  1
 O  O2  1  0.94131  0.33334  0.33369  1
 O  O3  1  0.98102  0.32821  0.83667  1
 O  O4  1  0.95726  0.83862  0.83896  1
 O  O5  1  0.54706  0.01446  0.48654  1
 O  O6  1  0.47435  -0.01678  -0.01644  1
 O  O7  1  0.98101  0.83632  0.32855  1
 O  O8  1  0.53756  0.49730  0.49766  1
 Y  Y1  1  0.26275  0.67873  0.67906  1
