CIF file written using JARVIS-Tools package.
data_K2O
_symmetry_space_group_name_H-M  'Pbca'
_cell_length_a       6.36345
_cell_length_b       6.57501
_cell_length_c       12.7731
_cell_angle_alpha    90
_cell_angle_beta     90
_cell_angle_gamma    90

_symmetry_Int_Tables_number  61
_chemical_formula_structural  K2O
_chemical_formula_sum  K6O8
_cell_volume  534.425320626041
_cell_formula_units_Z  8
loop_
  _symmetry_equiv_pos_site_id
 _symmetry_equiv_pos_as_xyz
 1  'x, y, z'
loop_
 _atom_site_type_symbol
 _atom_site_label
 _atom_site_symmetry_multiplicity
 _atom_site_fract_x
 _atom_site_fract_y
 _atom_site_fract_z
 _atom_site_fract_occupancy
 K  K1  1  0.99946  0.26112  0.02087  1
 K  K2  1  0.49946  0.73888  0.47913  1
 K  K3  1  0.49946  0.23888  0.02087  1
 K  K4  1  0.85627  0.88049  0.20411  1
 K  K5  1  0.35627  0.61951  0.20411  1
 K  K6  1  0.85627  0.38049  0.29589  1
 K  K7  1  0.99946  0.76112  0.47913  1
 K  K8  1  0.14373  0.61951  0.70411  1
 K  K9  1  0.35627  0.11951  0.29589  1
 K  K10  1  0.00054  0.23888  0.52087  1
 K  K11  1  0.64373  0.88049  0.70411  1
 K  K12  1  0.64373  0.38049  0.79589  1
 K  K13  1  0.14373  0.11951  0.79589  1
 K  K14  1  0.50054  0.76112  0.97913  1
 K  K15  1  0.00054  0.73888  0.97913  1
 K  K16  1  0.50054  0.26112  0.52087  1
 O  O1  1  0.76478  0.52883  0.61493  1
 O  O2  1  0.26478  0.47117  0.88507  1
 O  O3  1  0.23522  0.97117  0.11493  1
 O  O4  1  0.73522  0.52883  0.11493  1
 O  O5  1  0.73522  0.02883  0.38507  1
 O  O6  1  0.23522  0.47117  0.38507  1
 O  O7  1  0.26478  0.97117  0.61493  1
 O  O8  1  0.76478  0.02883  0.88507  1
