CIF file written using JARVIS-Tools package.
data_Na3NO2
_symmetry_space_group_name_H-M  'P4_2/mnm'
_cell_length_a       6.45545
_cell_length_b       6.45545
_cell_length_c       9.21163
_cell_angle_alpha    90
_cell_angle_beta     90
_cell_angle_gamma    90

_symmetry_Int_Tables_number  136
_chemical_formula_structural  Na3NO2
_chemical_formula_sum  Na2N4O8
_cell_volume  383.8751555375252
_cell_formula_units_Z  4
loop_
  _symmetry_equiv_pos_site_id
 _symmetry_equiv_pos_as_xyz
 1  'x, y, z'
loop_
 _atom_site_type_symbol
 _atom_site_label
 _atom_site_symmetry_multiplicity
 _atom_site_fract_x
 _atom_site_fract_y
 _atom_site_fract_z
 _atom_site_fract_occupancy
 N  N1  1  0.00000  0.00000  0.11726  1
 N  N2  1  0.50000  0.50000  0.38274  1
 N  N3  1  0.50000  0.50000  0.61726  1
 N  N4  1  0.00000  0.00000  0.88274  1
 Na  Na1  1  0.00000  0.50000  0.00000  1
 Na  Na2  1  0.23713  0.76287  0.25233  1
 Na  Na3  1  0.26287  0.26287  0.24767  1
 Na  Na4  1  0.73713  0.73713  0.24767  1
 Na  Na5  1  0.00000  0.50000  0.50000  1
 Na  Na6  1  0.50000  0.00000  0.00000  1
 Na  Na7  1  0.50000  0.00000  0.50000  1
 Na  Na8  1  0.23713  0.76287  0.74767  1
 Na  Na9  1  0.26287  0.26287  0.75233  1
 Na  Na10  1  0.73713  0.73713  0.75233  1
 Na  Na11  1  0.76287  0.23713  0.74767  1
 Na  Na12  1  0.76287  0.23713  0.25233  1
 O  O1  1  0.00000  0.50000  0.75000  1
 O  O2  1  0.50000  0.00000  0.75000  1
 O  O3  1  0.11727  0.11727  0.00000  1
 O  O4  1  0.50000  0.00000  0.25000  1
 O  O5  1  0.00000  0.50000  0.25000  1
 O  O6  1  0.38273  0.61727  0.50000  1
 O  O7  1  0.61727  0.38273  0.50000  1
 O  O8  1  0.88273  0.88273  0.00000  1
