CIF file written using JARVIS-Tools package.
data_Y2PtAu
_symmetry_space_group_name_H-M  'R-3m'
_cell_length_a       11.6803
_cell_length_b       9.26013
_cell_length_c       7.11951
_cell_angle_alpha    50.1638
_cell_angle_beta     35.6473
_cell_angle_gamma    18.3816

_symmetry_Int_Tables_number  166
_chemical_formula_structural  Y2PtAu
_chemical_formula_sum  Y2PtAu
_cell_volume  99.59828604961552
_cell_formula_units_Z  1
loop_
  _symmetry_equiv_pos_site_id
 _symmetry_equiv_pos_as_xyz
 1  'x, y, z'
loop_
 _atom_site_type_symbol
 _atom_site_label
 _atom_site_symmetry_multiplicity
 _atom_site_fract_x
 _atom_site_fract_y
 _atom_site_fract_z
 _atom_site_fract_occupancy
 Au  Au1  1  0.50000  -0.00000  -0.00000  1
 Pt  Pt1  1  0.00000  0.00000  0.00000  1
 Y  Y1  1  0.76647  0.00000  -0.02196  1
 Y  Y2  1  0.23353  -0.00000  0.02196  1
