CIF file written using JARVIS-Tools package.
data_Li2MnCrO4
_symmetry_space_group_name_H-M  'C2/c'
_cell_length_a       5.98004
_cell_length_b       5.98004
_cell_length_c       6.00074
_cell_angle_alpha    122.415
_cell_angle_beta     122.415
_cell_angle_gamma    86.2858

_symmetry_Int_Tables_number  15
_chemical_formula_structural  Li2MnCrO4
_chemical_formula_sum  Li4Mn2Cr2O8
_cell_volume  145.27741022314478
_cell_formula_units_Z  2
loop_
  _symmetry_equiv_pos_site_id
 _symmetry_equiv_pos_as_xyz
 1  'x, y, z'
loop_
 _atom_site_type_symbol
 _atom_site_label
 _atom_site_symmetry_multiplicity
 _atom_site_fract_x
 _atom_site_fract_y
 _atom_site_fract_z
 _atom_site_fract_occupancy
 Cr  Cr1  1  0.50000  -0.00000  0.50000  1
 Cr  Cr2  1  0.00000  0.50000  -0.00000  1
 Li  Li1  1  0.50000  -0.00000  -0.00000  1
 Li  Li2  1  0.50000  0.50000  0.50000  1
 Li  Li3  1  0.00000  0.50000  0.50000  1
 Li  Li4  1  0.50000  0.50000  -0.00000  1
 Mn  Mn1  1  0.00000  0.00000  0.00000  1
 Mn  Mn2  1  0.00000  -0.00000  0.50000  1
 O  O1  1  0.77561  0.25375  0.99220  1
 O  O2  1  0.23946  0.25127  0.97270  1
 O  O3  1  0.74625  0.22439  0.50780  1
 O  O4  1  0.74873  0.76054  0.52730  1
 O  O5  1  0.25127  0.23946  0.47270  1
 O  O6  1  0.76054  0.74873  0.02730  1
 O  O7  1  0.25375  0.77561  0.49220  1
 O  O8  1  0.22439  0.74625  0.00780  1
