CIF file written using JARVIS-Tools package.
data_CoNi2S4
_symmetry_space_group_name_H-M  'Imma'
_cell_length_a       6.65149
_cell_length_b       6.6515
_cell_length_c       6.62982
_cell_angle_alpha    60.1077
_cell_angle_beta     60.1077
_cell_angle_gamma    60.2751

_symmetry_Int_Tables_number  74
_chemical_formula_structural  CoNi2S4
_chemical_formula_sum  Co2Ni4S8
_cell_volume  208.17500659519465
_cell_formula_units_Z  2
loop_
  _symmetry_equiv_pos_site_id
 _symmetry_equiv_pos_as_xyz
 1  'x, y, z'
loop_
 _atom_site_type_symbol
 _atom_site_label
 _atom_site_symmetry_multiplicity
 _atom_site_fract_x
 _atom_site_fract_y
 _atom_site_fract_z
 _atom_site_fract_occupancy
 Co  Co1  1  0.50000  0.50000  0.00000  1
 Co  Co2  1  0.50000  0.50000  0.50000  1
 Ni  Ni1  1  0.12384  0.12384  0.12616  1
 Ni  Ni2  1  0.00000  0.50000  0.50000  1
 Ni  Ni3  1  0.50000  -0.00000  0.50000  1
 Ni  Ni4  1  0.87616  0.87616  0.87384  1
 S  S1  1  0.26024  0.26024  0.25481  1
 S  S2  1  0.26024  0.26024  0.72470  1
 S  S3  1  0.26403  0.72200  0.25698  1
 S  S4  1  0.72200  0.26403  0.25698  1
 S  S5  1  0.27800  0.73597  0.74302  1
 S  S6  1  0.73597  0.27800  0.74302  1
 S  S7  1  0.73976  0.73976  0.27530  1
 S  S8  1  0.73976  0.73976  0.74519  1
