CIF file written using JARVIS-Tools package.
data_Mn2O3F
_symmetry_space_group_name_H-M  'Amm2'
_cell_length_a       4.5477
_cell_length_b       4.5477
_cell_length_c       2.96466
_cell_angle_alpha    90
_cell_angle_beta     90
_cell_angle_gamma    93.228

_symmetry_Int_Tables_number  38
_chemical_formula_structural  Mn2O3F
_chemical_formula_sum  Mn2O3F
_cell_volume  61.21676009853064
_cell_formula_units_Z  1
loop_
  _symmetry_equiv_pos_site_id
 _symmetry_equiv_pos_as_xyz
 1  'x, y, z'
loop_
 _atom_site_type_symbol
 _atom_site_label
 _atom_site_symmetry_multiplicity
 _atom_site_fract_x
 _atom_site_fract_y
 _atom_site_fract_z
 _atom_site_fract_occupancy
 F  F1  1  0.80162  0.19838  0.50000  1
 Mn  Mn1  1  0.01981  0.98019  0.00000  1
 Mn  Mn2  1  0.48745  0.51255  0.50000  1
 O  O1  1  0.19616  0.80384  0.50000  1
 O  O2  1  0.30139  0.30642  0.00000  1
 O  O3  1  0.69358  0.69861  0.00000  1
