CIF file written using JARVIS-Tools package.
data_Li2TiMn2O6
_symmetry_space_group_name_H-M  'Cmce'
_cell_length_a       5.0938
_cell_length_b       5.0938
_cell_length_c       10.0612
_cell_angle_alpha    90
_cell_angle_beta     90
_cell_angle_gamma    115.545

_symmetry_Int_Tables_number  64
_chemical_formula_structural  Li2TiMn2O6
_chemical_formula_sum  Li4Ti2Mn4O2
_cell_volume  235.5373309275052
_cell_formula_units_Z  2
loop_
  _symmetry_equiv_pos_site_id
 _symmetry_equiv_pos_as_xyz
 1  'x, y, z'
loop_
 _atom_site_type_symbol
 _atom_site_label
 _atom_site_symmetry_multiplicity
 _atom_site_fract_x
 _atom_site_fract_y
 _atom_site_fract_z
 _atom_site_fract_occupancy
 Li  Li1  1  0.09583  0.59583  0.75000  1
 Li  Li2  1  0.40417  0.90417  0.25000  1
 Li  Li3  1  0.59583  0.09583  0.75000  1
 Li  Li4  1  0.90417  0.40417  0.25000  1
 Mn  Mn1  1  0.16470  0.83530  0.50000  1
 Mn  Mn2  1  0.33530  0.66470  0.00000  1
 Mn  Mn3  1  0.66470  0.33530  0.00000  1
 Mn  Mn4  1  0.83530  0.16470  0.50000  1
 O  O1  1  0.79230  0.44622  0.61286  1
 O  O2  1  0.94622  0.29230  0.88714  1
 O  O3  1  0.20770  0.55378  0.38714  1
 O  O4  1  0.44622  0.79230  0.61286  1
 O  O5  1  0.05378  0.70770  0.11286  1
 O  O6  1  0.32925  0.32925  0.09070  1
 O  O7  1  0.55378  0.20770  0.38714  1
 O  O8  1  0.29230  0.94622  0.88714  1
 O  O9  1  0.82925  0.82925  0.40930  1
 O  O10  1  0.17075  0.17075  0.59070  1
 O  O11  1  0.67075  0.67075  0.90930  1
 O  O12  1  0.70770  0.05378  0.11286  1
 Ti  Ti1  1  0.50000  0.50000  0.50000  1
 Ti  Ti2  1  0.00000  0.00000  0.00000  1
