CIF file written using JARVIS-Tools package.
data_Mn4CrO8
_symmetry_space_group_name_H-M  'C2/m'
_cell_length_a       5.77939
_cell_length_b       5.77939
_cell_length_c       5.85914
_cell_angle_alpha    89.5014
_cell_angle_beta     59.6703
_cell_angle_gamma    60.2062

_symmetry_Int_Tables_number  12
_chemical_formula_structural  Mn4CrO8
_chemical_formula_sum  Mn4CrO8
_cell_volume  138.7153708658889
_cell_formula_units_Z  1
loop_
  _symmetry_equiv_pos_site_id
 _symmetry_equiv_pos_as_xyz
 1  'x, y, z'
loop_
 _atom_site_type_symbol
 _atom_site_label
 _atom_site_symmetry_multiplicity
 _atom_site_fract_x
 _atom_site_fract_y
 _atom_site_fract_z
 _atom_site_fract_occupancy
 Cr  Cr1  1  0.50000  0.50000  -0.00000  1
 Mn  Mn1  1  -0.00000  0.50000  0.50000  1
 Mn  Mn2  1  0.00000  0.00000  0.00000  1
 Mn  Mn3  1  0.50000  0.00000  0.00000  1
 Mn  Mn4  1  -0.00000  0.50000  -0.00000  1
 O  O1  1  0.46829  0.26748  0.79919  1
 O  O2  1  0.97729  0.27824  0.77601  1
 O  O3  1  0.50223  0.75331  0.77601  1
 O  O4  1  0.97310  0.75267  0.77957  1
 O  O5  1  0.02690  0.24733  0.22043  1
 O  O6  1  0.49777  0.24669  0.22399  1
 O  O7  1  0.02271  0.72176  0.22399  1
 O  O8  1  0.53171  0.73252  0.20081  1
