CIF file written using JARVIS-Tools package.
data_LiNiPO4
_symmetry_space_group_name_H-M  'R-3'
_cell_length_a       4.81142
_cell_length_b       8.23042
_cell_length_c       4.81142
_cell_angle_alpha    73.0046
_cell_angle_beta     60
_cell_angle_gamma    90

_symmetry_Int_Tables_number  148
_chemical_formula_structural  LiNiPO4
_chemical_formula_sum  Li2Ni2P2O8
_cell_volume  155.32336328105907
_cell_formula_units_Z  2
loop_
  _symmetry_equiv_pos_site_id
 _symmetry_equiv_pos_as_xyz
 1  'x, y, z'
loop_
 _atom_site_type_symbol
 _atom_site_label
 _atom_site_symmetry_multiplicity
 _atom_site_fract_x
 _atom_site_fract_y
 _atom_site_fract_z
 _atom_site_fract_occupancy
 Li  Li1  1  0.00616  0.01847  0.98769  1
 Li  Li2  1  0.56935  0.70804  0.86131  1
 Ni  Ni1  1  0.44930  0.34790  0.10140  1
 Ni  Ni2  1  0.12621  0.37862  0.74759  1
 O  O1  1  0.15874  0.52249  0.01880  1
 O  O2  1  0.03422  0.20402  0.54903  1
 O  O3  1  0.54129  0.52249  0.29996  1
 O  O4  1  0.41676  0.20402  0.83020  1
 O  O5  1  0.75305  0.20402  0.21274  1
 O  O6  1  0.92810  0.78429  0.14381  1
 O  O7  1  0.64741  0.94222  0.70519  1
 O  O8  1  0.82246  0.52249  0.63625  1
 P  P1  1  0.86378  0.59134  0.27244  1
 P  P2  1  0.71172  0.13517  0.57655  1
