CIF file written using JARVIS-Tools package.
data_LiCoSiO4
_symmetry_space_group_name_H-M  'Pc'
_cell_length_a       8.10677
_cell_length_b       5.2831
_cell_length_c       8.27724
_cell_angle_alpha    90
_cell_angle_beta     106.069
_cell_angle_gamma    90

_symmetry_Int_Tables_number  7
_chemical_formula_structural  LiCoSiO4
_chemical_formula_sum  Li4Co4Si4O6
_cell_volume  340.65377164993185
_cell_formula_units_Z  4
loop_
  _symmetry_equiv_pos_site_id
 _symmetry_equiv_pos_as_xyz
 1  'x, y, z'
loop_
 _atom_site_type_symbol
 _atom_site_label
 _atom_site_symmetry_multiplicity
 _atom_site_fract_x
 _atom_site_fract_y
 _atom_site_fract_z
 _atom_site_fract_occupancy
 Co  Co1  1  0.13384  0.33275  0.79831  1
 Co  Co2  1  0.62634  0.83261  0.60753  1
 Co  Co3  1  0.13384  0.66725  0.29831  1
 Co  Co4  1  0.62634  0.16739  0.10753  1
 Li  Li1  1  0.02971  0.84153  0.92215  1
 Li  Li2  1  0.49674  0.33260  0.71819  1
 Li  Li3  1  0.02971  0.15847  0.42215  1
 Li  Li4  1  0.49674  0.66740  0.21819  1
 O  O1  1  0.67313  0.37517  0.94458  1
 O  O2  1  0.43463  0.68695  0.65738  1
 O  O3  1  0.78602  0.78579  0.81505  1
 O  O4  1  0.11515  0.17401  0.99234  1
 O  O5  1  0.18622  0.67974  0.81637  1
 O  O6  1  0.61555  0.82301  0.06302  1
 O  O7  1  0.61555  0.17699  0.56302  1
 O  O8  1  0.30206  0.12920  0.73556  1
 O  O9  1  0.94788  0.31605  0.61183  1
 O  O10  1  0.78602  0.21421  0.31505  1
 O  O11  1  0.18622  0.32026  0.31637  1
 O  O12  1  0.30206  0.87080  0.23556  1
 O  O13  1  0.11515  0.82599  0.49234  1
 O  O14  1  0.43463  0.31305  0.15738  1
 O  O15  1  0.67313  0.62483  0.44458  1
 O  O16  1  0.94788  0.68395  0.11183  1
 Si  Si1  1  0.75222  0.66302  0.98647  1
 Si  Si2  1  0.26170  0.83104  0.67743  1
 Si  Si3  1  0.75222  0.33698  0.48647  1
 Si  Si4  1  0.26170  0.16896  0.17743  1
