CIF file written using JARVIS-Tools package.
data_MnVOs2
_symmetry_space_group_name_H-M  'Immm'
_cell_length_a       11.1033
_cell_length_b       6.0451
_cell_length_c       6.04624
_cell_angle_alpha    26.1835
_cell_angle_beta     23.3205
_cell_angle_gamma    23.3251

_symmetry_Int_Tables_number  71
_chemical_formula_structural  MnVOs2
_chemical_formula_sum  MnVOs2
_cell_volume  59.69801373508974
_cell_formula_units_Z  1
loop_
  _symmetry_equiv_pos_site_id
 _symmetry_equiv_pos_as_xyz
 1  'x, y, z'
loop_
 _atom_site_type_symbol
 _atom_site_label
 _atom_site_symmetry_multiplicity
 _atom_site_fract_x
 _atom_site_fract_y
 _atom_site_fract_z
 _atom_site_fract_occupancy
 Mn  Mn1  1  0.50000  0.00000  0.00000  1
 Os  Os1  1  0.70489  -0.00009  0.00009  1
 Os  Os2  1  0.29511  0.00009  -0.00009  1
 V  V1  1  0.00000  0.00000  0.00000  1
