CIF file written using JARVIS-Tools package.
data_Li3FeSiO5
_symmetry_space_group_name_H-M  'P-1'
_cell_length_a       4.8435
_cell_length_b       5.67251
_cell_length_c       6.3426
_cell_angle_alpha    104.362
_cell_angle_beta     97.8722
_cell_angle_gamma    106.318

_symmetry_Int_Tables_number  2
_chemical_formula_structural  Li3FeSiO5
_chemical_formula_sum  Li6Fe2Si2O0
_cell_volume  157.96229701560037
_cell_formula_units_Z  2
loop_
  _symmetry_equiv_pos_site_id
 _symmetry_equiv_pos_as_xyz
 1  'x, y, z'
loop_
 _atom_site_type_symbol
 _atom_site_label
 _atom_site_symmetry_multiplicity
 _atom_site_fract_x
 _atom_site_fract_y
 _atom_site_fract_z
 _atom_site_fract_occupancy
 Fe  Fe1  1  0.70461  0.90127  0.40165  1
 Fe  Fe2  1  0.29539  0.09873  0.59835  1
 Li  Li1  1  0.68625  0.40009  0.39247  1
 Li  Li2  1  0.50000  -0.00000  -0.00000  1
 Li  Li3  1  0.50000  0.50000  0.00000  1
 Li  Li4  1  0.31375  0.59991  0.60753  1
 Li  Li5  1  0.10676  0.20039  0.19517  1
 Li  Li6  1  0.89324  0.79961  0.80483  1
 O  O1  1  0.17025  0.15996  0.87533  1
 O  O2  1  0.38334  0.57939  0.29825  1
 O  O3  1  0.38297  0.01515  0.29665  1
 O  O4  1  0.61666  0.42061  0.70175  1
 O  O5  1  0.61703  0.98485  0.70335  1
 O  O6  1  0.00538  0.75179  0.46982  1
 O  O7  1  0.82975  0.84004  0.12467  1
 O  O8  1  0.99462  0.24821  0.53018  1
 O  O9  1  0.16531  0.63039  0.91437  1
 O  O10  1  0.83469  0.36961  0.08563  1
 Si  Si1  1  0.90183  0.30661  0.80562  1
 Si  Si2  1  0.09817  0.69339  0.19438  1
