CIF file written using JARVIS-Tools package.
data_Li2TiCrO4
_symmetry_space_group_name_H-M  'Imma'
_cell_length_a       5.84557
_cell_length_b       5.84549
_cell_length_c       5.8577
_cell_angle_alpha    120.069
_cell_angle_beta     120.07
_cell_angle_gamma    89.2374

_symmetry_Int_Tables_number  74
_chemical_formula_structural  Li2TiCrO4
_chemical_formula_sum  Li4Ti2Cr2O8
_cell_volume  142.15681565004866
_cell_formula_units_Z  2
loop_
  _symmetry_equiv_pos_site_id
 _symmetry_equiv_pos_as_xyz
 1  'x, y, z'
loop_
 _atom_site_type_symbol
 _atom_site_label
 _atom_site_symmetry_multiplicity
 _atom_site_fract_x
 _atom_site_fract_y
 _atom_site_fract_z
 _atom_site_fract_occupancy
 Cr  Cr1  1  0.00000  0.50000  0.00000  1
 Cr  Cr2  1  0.50000  -0.00000  0.50000  1
 Li  Li1  1  -0.00000  0.50000  0.50000  1
 Li  Li2  1  0.50000  0.50000  0.50000  1
 Li  Li3  1  0.50000  0.00000  0.00000  1
 Li  Li4  1  0.50000  0.50000  0.00000  1
 O  O1  1  0.24719  0.75283  0.01506  1
 O  O2  1  0.24342  0.23737  0.49038  1
 O  O3  1  0.24717  0.75281  0.48494  1
 O  O4  1  0.76263  0.75658  0.00962  1
 O  O5  1  0.23737  0.24342  0.99038  1
 O  O6  1  0.75283  0.24719  0.51506  1
 O  O7  1  0.75658  0.76263  0.50962  1
 O  O8  1  0.75281  0.24717  0.98494  1
 Ti  Ti1  1  0.00000  0.00000  0.50000  1
 Ti  Ti2  1  0.00000  0.00000  0.00000  1
