CIF file written using JARVIS-Tools package.
data_Nb2SiTe4
_symmetry_space_group_name_H-M  'C2/m'
_cell_length_a       3.71444
_cell_length_b       8.46298
_cell_length_c       7.69011
_cell_angle_alpha    107.917
_cell_angle_beta     118.883
_cell_angle_gamma    102.678

_symmetry_Int_Tables_number  12
_chemical_formula_structural  Nb2SiTe4
_chemical_formula_sum  Nb2SiTe4
_cell_volume  180.68454500173866
_cell_formula_units_Z  1
loop_
  _symmetry_equiv_pos_site_id
 _symmetry_equiv_pos_as_xyz
 1  'x, y, z'
loop_
 _atom_site_type_symbol
 _atom_site_label
 _atom_site_symmetry_multiplicity
 _atom_site_fract_x
 _atom_site_fract_y
 _atom_site_fract_z
 _atom_site_fract_occupancy
 Nb  Nb1  1  0.80213  0.36603  0.18639  1
 Nb  Nb2  1  0.91217  0.33306  0.81305  1
 Si  Si1  1  0.35714  0.84951  -0.00031  1
 Te  Te1  1  0.21707  0.06048  0.75426  1
 Te  Te2  1  0.49725  0.63864  0.24519  1
 Te  Te3  1  0.40999  0.55515  0.69977  1
 Te  Te4  1  0.30425  0.14392  0.29964  1
