CIF file written using JARVIS-Tools package.
data_Li2Ti3NiO8
_symmetry_space_group_name_H-M  'R3m'
_cell_length_a       5.89469
_cell_length_b       5.89469
_cell_length_c       5.8947
_cell_angle_alpha    60.5288
_cell_angle_beta     60.5288
_cell_angle_gamma    60.5288

_symmetry_Int_Tables_number  160
_chemical_formula_structural  Li2Ti3NiO8
_chemical_formula_sum  Li2Ti3NiO8
_cell_volume  146.56402494186543
_cell_formula_units_Z  1
loop_
  _symmetry_equiv_pos_site_id
 _symmetry_equiv_pos_as_xyz
 1  'x, y, z'
loop_
 _atom_site_type_symbol
 _atom_site_label
 _atom_site_symmetry_multiplicity
 _atom_site_fract_x
 _atom_site_fract_y
 _atom_site_fract_z
 _atom_site_fract_occupancy
 Li  Li1  1  0.11951  0.11951  0.11951  1
 Li  Li2  1  0.49977  0.49977  0.49977  1
 Ni  Ni1  1  0.88277  0.88277  0.88277  1
 O  O1  1  0.25900  0.25900  0.25900  1
 O  O2  1  0.25160  0.25160  0.71195  1
 O  O3  1  0.25160  0.71195  0.25160  1
 O  O4  1  0.71195  0.25160  0.25160  1
 O  O5  1  0.28145  0.74744  0.74744  1
 O  O6  1  0.74744  0.28145  0.74744  1
 O  O7  1  0.74744  0.74744  0.28145  1
 O  O8  1  0.74232  0.74232  0.74232  1
 Ti  Ti1  1  0.00748  0.49884  0.49884  1
 Ti  Ti2  1  0.49884  0.00748  0.49884  1
 Ti  Ti3  1  0.49884  0.49884  0.00748  1
