CIF file written using JARVIS-Tools package.
data_Sr5Bi3O12
_symmetry_space_group_name_H-M  'P-1'
_cell_length_a       6.0036
_cell_length_b       6.20159
_cell_length_c       8.5665
_cell_angle_alpha    89.6613
_cell_angle_beta     89.7605
_cell_angle_gamma    90.0087

_symmetry_Int_Tables_number  2
_chemical_formula_structural  Sr5Bi3O12
_chemical_formula_sum  Sr5Bi3O2
_cell_volume  318.9387398105889
_cell_formula_units_Z  1
loop_
  _symmetry_equiv_pos_site_id
 _symmetry_equiv_pos_as_xyz
 1  'x, y, z'
loop_
 _atom_site_type_symbol
 _atom_site_label
 _atom_site_symmetry_multiplicity
 _atom_site_fract_x
 _atom_site_fract_y
 _atom_site_fract_z
 _atom_site_fract_occupancy
 Bi  Bi1  1  0.50000  0.50000  0.50000  1
 Bi  Bi2  1  0.50000  0.50000  -0.00000  1
 Bi  Bi3  1  -0.00000  0.00000  0.50000  1
 O  O1  1  0.28977  0.79223  0.56111  1
 O  O2  1  0.88790  0.95176  0.72956  1
 O  O3  1  0.20475  0.28491  0.56853  1
 O  O4  1  0.79114  0.67646  0.04758  1
 O  O5  1  0.71023  0.20777  0.43889  1
 O  O6  1  0.79525  0.71509  0.43147  1
 O  O7  1  0.61073  0.45303  0.74943  1
 O  O8  1  0.38927  0.54697  0.25057  1
 O  O9  1  0.11210  0.04824  0.27044  1
 O  O10  1  0.67147  0.21151  0.05335  1
 O  O11  1  0.20886  0.32354  0.95242  1
 O  O12  1  0.32853  0.78849  0.94665  1
 Sr  Sr1  1  0.01660  0.55436  0.75812  1
 Sr  Sr2  1  0.48724  0.05104  0.75570  1
 Sr  Sr3  1  0.51276  0.94896  0.24430  1
 Sr  Sr4  1  0.98340  0.44564  0.24188  1
 Sr  Sr5  1  0.00000  0.00000  0.00000  1
