CIF file written using JARVIS-Tools package.
data_Fe5O4F8
_symmetry_space_group_name_H-M  'Cmmm'
_cell_length_a       4.6212
_cell_length_b       4.62121
_cell_length_c       8.48598
_cell_angle_alpha    90
_cell_angle_beta     90
_cell_angle_gamma    94.0287

_symmetry_Int_Tables_number  65
_chemical_formula_structural  Fe5O4F8
_chemical_formula_sum  Fe5O4F8
_cell_volume  180.77488332522498
_cell_formula_units_Z  1
loop_
  _symmetry_equiv_pos_site_id
 _symmetry_equiv_pos_as_xyz
 1  'x, y, z'
loop_
 _atom_site_type_symbol
 _atom_site_label
 _atom_site_symmetry_multiplicity
 _atom_site_fract_x
 _atom_site_fract_y
 _atom_site_fract_z
 _atom_site_fract_occupancy
 F  F1  1  0.80862  0.19138  0.16667  1
 F  F2  1  0.69210  0.69210  0.66667  1
 F  F3  1  0.30790  0.30790  0.66667  1
 F  F4  1  0.22325  0.77675  0.83354  1
 F  F5  1  0.22325  0.77675  0.49979  1
 F  F6  1  0.19138  0.80862  0.16667  1
 F  F7  1  0.77675  0.22325  0.49979  1
 F  F8  1  0.77675  0.22325  0.83354  1
 Fe  Fe1  1  0.00000  0.00000  0.35879  1
 Fe  Fe2  1  0.50000  0.50000  0.49197  1
 Fe  Fe3  1  0.50000  0.50000  0.84136  1
 Fe  Fe4  1  0.50000  0.50000  0.16667  1
 Fe  Fe5  1  0.00000  0.00000  0.97454  1
 O  O1  1  0.69549  0.69549  0.33342  1
 O  O2  1  0.69549  0.69549  -0.00008  1
 O  O3  1  0.30451  0.30451  -0.00008  1
 O  O4  1  0.30451  0.30451  0.33342  1
