CIF file written using JARVIS-Tools package.
data_HfMgHg2
_symmetry_space_group_name_H-M  'C2/m'
_cell_length_a       11.748
_cell_length_b       8.32336
_cell_length_c       8.32336
_cell_angle_alpha    22.2022
_cell_angle_beta     19.7898
_cell_angle_gamma    19.7898

_symmetry_Int_Tables_number  12
_chemical_formula_structural  HfMgHg2
_chemical_formula_sum  HfMgHg2
_cell_volume  87.28207904747167
_cell_formula_units_Z  1
loop_
  _symmetry_equiv_pos_site_id
 _symmetry_equiv_pos_as_xyz
 1  'x, y, z'
loop_
 _atom_site_type_symbol
 _atom_site_label
 _atom_site_symmetry_multiplicity
 _atom_site_fract_x
 _atom_site_fract_y
 _atom_site_fract_z
 _atom_site_fract_occupancy
 Hf  Hf1  1  0.50000  0.00000  0.00000  1
 Hg  Hg1  1  0.74380  0.00408  0.00408  1
 Hg  Hg2  1  0.25620  -0.00408  -0.00408  1
 Mg  Mg1  1  0.00000  0.00000  0.00000  1
