CIF file written using JARVIS-Tools package.
data_Li4SbTe3O12
_symmetry_space_group_name_H-M  'P2'
_cell_length_a       5.0507
_cell_length_b       9.19361
_cell_length_c       5.19804
_cell_angle_alpha    90
_cell_angle_beta     95.2963
_cell_angle_gamma    90

_symmetry_Int_Tables_number  3
_chemical_formula_structural  Li4SbTe3O12
_chemical_formula_sum  Li4SbTe3O2
_cell_volume  240.33579362541803
_cell_formula_units_Z  1
loop_
  _symmetry_equiv_pos_site_id
 _symmetry_equiv_pos_as_xyz
 1  'x, y, z'
loop_
 _atom_site_type_symbol
 _atom_site_label
 _atom_site_symmetry_multiplicity
 _atom_site_fract_x
 _atom_site_fract_y
 _atom_site_fract_z
 _atom_site_fract_occupancy
 Li  Li1  1  0.00000  0.31749  0.00000  1
 Li  Li2  1  0.50000  0.14254  0.00000  1
 Li  Li3  1  -0.00000  0.67367  0.50000  1
 Li  Li4  1  0.50000  0.84394  0.50000  1
 O  O1  1  0.23362  0.75272  0.19159  1
 O  O2  1  0.71514  0.43720  0.85286  1
 O  O3  1  0.22107  0.05815  0.20756  1
 O  O4  1  0.71552  0.55612  0.34943  1
 O  O5  1  0.28486  0.43720  0.14714  1
 O  O6  1  0.78982  0.22478  0.29860  1
 O  O7  1  0.21018  0.22478  0.70140  1
 O  O8  1  0.28448  0.55612  0.65057  1
 O  O9  1  0.78788  0.92416  0.30877  1
 O  O10  1  0.77893  0.05815  0.79244  1
 O  O11  1  0.21212  0.92416  0.69123  1
 O  O12  1  0.76638  0.75272  0.80841  1
 Sb  Sb1  1  0.00000  0.89580  0.00000  1
 Te  Te1  1  0.50000  0.39836  0.50000  1
 Te  Te2  1  -0.00000  0.08620  0.50000  1
 Te  Te3  1  0.50000  0.59467  0.00000  1
