CIF file written using JARVIS-Tools package.
data_SCl
_symmetry_space_group_name_H-M  'Fdd2'
_cell_length_a       4.68984
_cell_length_b       8.83312
_cell_length_c       10.9297
_cell_angle_alpha    86.735
_cell_angle_beta     77.6112
_cell_angle_gamma    74.6052

_symmetry_Int_Tables_number  43
_chemical_formula_structural  SCl
_chemical_formula_sum  S8Cl8
_cell_volume  426.3608561743955
_cell_formula_units_Z  8
loop_
  _symmetry_equiv_pos_site_id
 _symmetry_equiv_pos_as_xyz
 1  'x, y, z'
loop_
 _atom_site_type_symbol
 _atom_site_label
 _atom_site_symmetry_multiplicity
 _atom_site_fract_x
 _atom_site_fract_y
 _atom_site_fract_z
 _atom_site_fract_occupancy
 Cl  Cl1  1  0.63125  0.23075  0.00005  1
 Cl  Cl2  1  0.86205  0.76925  -0.00005  1
 Cl  Cl3  1  0.61200  0.26925  0.50005  1
 Cl  Cl4  1  0.38131  0.73075  0.49995  1
 Cl  Cl5  1  0.91847  0.46798  0.67006  1
 Cl  Cl6  1  0.05650  0.53202  0.32994  1
 Cl  Cl7  1  0.13644  0.03202  0.17006  1
 Cl  Cl8  1  0.33853  0.96798  0.82994  1
 S  S1  1  0.38158  0.35577  0.86753  1
 S  S2  1  0.60489  0.64423  0.13247  1
 S  S3  1  0.48735  0.14423  0.36753  1
 S  S4  1  -0.00088  0.85577  0.63247  1
 S  S5  1  0.52747  0.53904  0.81627  1
 S  S6  1  0.88279  0.46096  0.18373  1
 S  S7  1  0.81651  0.96096  0.31627  1
 S  S8  1  0.09374  0.03904  0.68373  1
