CIF file written using JARVIS-Tools package.
data_AsCl2F3
_symmetry_space_group_name_H-M  'P4/n'
_cell_length_a       8.58478
_cell_length_b       8.58478
_cell_length_c       6.23805
_cell_angle_alpha    90
_cell_angle_beta     90
_cell_angle_gamma    90

_symmetry_Int_Tables_number  85
_chemical_formula_structural  AsCl2F3
_chemical_formula_sum  As4Cl8F2
_cell_volume  459.7351525169179
_cell_formula_units_Z  4
loop_
  _symmetry_equiv_pos_site_id
 _symmetry_equiv_pos_as_xyz
 1  'x, y, z'
loop_
 _atom_site_type_symbol
 _atom_site_label
 _atom_site_symmetry_multiplicity
 _atom_site_fract_x
 _atom_site_fract_y
 _atom_site_fract_z
 _atom_site_fract_occupancy
 As  As1  1  0.00000  0.50000  0.67846  1
 As  As2  1  0.50000  0.00000  0.32154  1
 As  As3  1  0.00000  0.00000  0.00000  1
 As  As4  1  0.50000  0.50000  0.00000  1
 Cl  Cl1  1  0.95357  0.19179  0.19911  1
 Cl  Cl2  1  0.69179  0.54643  0.19911  1
 Cl  Cl3  1  0.19179  0.04643  0.80089  1
 Cl  Cl4  1  0.54643  0.30821  0.80089  1
 Cl  Cl5  1  0.45357  0.69179  0.80089  1
 Cl  Cl6  1  0.80821  0.95357  0.80089  1
 Cl  Cl7  1  0.04643  0.80821  0.19911  1
 Cl  Cl8  1  0.30821  0.45357  0.19911  1
 F  F1  1  0.50000  0.00000  0.04004  1
 F  F2  1  0.00000  0.50000  0.95996  1
 F  F3  1  0.00000  0.50000  0.39263  1
 F  F4  1  0.50000  0.00000  0.60737  1
 F  F5  1  0.92372  0.30728  0.67578  1
 F  F6  1  0.80728  0.57628  0.67578  1
 F  F7  1  0.19272  0.42372  0.67578  1
 F  F8  1  0.07628  0.69272  0.67578  1
 F  F9  1  0.57628  0.19272  0.32422  1
 F  F10  1  0.69272  0.92372  0.32422  1
 F  F11  1  0.30728  0.07628  0.32422  1
 F  F12  1  0.42372  0.80728  0.32422  1
