CIF file written using JARVIS-Tools package.
data_Tl2Sn2S3
_symmetry_space_group_name_H-M  'C2/c'
_cell_length_a       7.15365
_cell_length_b       8.07582
_cell_length_c       8.26087
_cell_angle_alpha    119.262
_cell_angle_beta     104.822
_cell_angle_gamma    90

_symmetry_Int_Tables_number  15
_chemical_formula_structural  Tl2Sn2S3
_chemical_formula_sum  Tl4Sn4S6
_cell_volume  398.0417060380282
_cell_formula_units_Z  2
loop_
  _symmetry_equiv_pos_site_id
 _symmetry_equiv_pos_as_xyz
 1  'x, y, z'
loop_
 _atom_site_type_symbol
 _atom_site_label
 _atom_site_symmetry_multiplicity
 _atom_site_fract_x
 _atom_site_fract_y
 _atom_site_fract_z
 _atom_site_fract_occupancy
 S  S1  1  0.69510  0.63763  0.45325  1
 S  S2  1  0.80490  0.18438  0.54675  1
 S  S3  1  0.30490  0.36237  0.54675  1
 S  S4  1  0.19510  0.81562  0.45325  1
 S  S5  1  0.75000  0.58970  0.00000  1
 S  S6  1  0.25000  0.41030  -0.00000  1
 Sn  Sn1  1  0.46759  0.74859  0.24027  1
 Sn  Sn2  1  0.03241  0.50833  0.75973  1
 Sn  Sn3  1  0.53241  0.25141  0.75973  1
 Sn  Sn4  1  0.96759  0.49167  0.24027  1
 Tl  Tl1  1  0.50712  0.22587  0.23942  1
 Tl  Tl2  1  0.99288  0.98645  0.76058  1
 Tl  Tl3  1  0.49288  0.77413  0.76058  1
 Tl  Tl4  1  0.00712  0.01355  0.23942  1
