CIF file written using JARVIS-Tools package.
data_TiMnO3
_symmetry_space_group_name_H-M  'R3c'
_cell_length_a       5.51542
_cell_length_b       5.51542
_cell_length_c       5.51542
_cell_angle_alpha    56.2033
_cell_angle_beta     56.2033
_cell_angle_gamma    56.2033

_symmetry_Int_Tables_number  161
_chemical_formula_structural  TiMnO3
_chemical_formula_sum  Ti2Mn2O6
_cell_volume  108.21197095145175
_cell_formula_units_Z  2
loop_
  _symmetry_equiv_pos_site_id
 _symmetry_equiv_pos_as_xyz
 1  'x, y, z'
loop_
 _atom_site_type_symbol
 _atom_site_label
 _atom_site_symmetry_multiplicity
 _atom_site_fract_x
 _atom_site_fract_y
 _atom_site_fract_z
 _atom_site_fract_occupancy
 Mn  Mn1  1  0.78033  0.78033  0.78033  1
 Mn  Mn2  1  0.28033  0.28033  0.28033  1
 O  O1  1  0.61119  0.21852  0.85666  1
 O  O2  1  0.21852  0.85666  0.61119  1
 O  O3  1  0.85666  0.61119  0.21852  1
 O  O4  1  0.35666  0.71852  0.11119  1
 O  O5  1  0.11119  0.35666  0.71852  1
 O  O6  1  0.71852  0.11119  0.35666  1
 Ti  Ti1  1  0.49967  0.49967  0.49967  1
 Ti  Ti2  1  -0.00033  -0.00033  -0.00033  1
