CIF file written using JARVIS-Tools package.
data_NaFeS2
_symmetry_space_group_name_H-M  'I222'
_cell_length_a       5.31371
_cell_length_b       6.88586
_cell_length_c       6.8394
_cell_angle_alpha    120.225
_cell_angle_beta     112.859
_cell_angle_gamma    90

_symmetry_Int_Tables_number  23
_chemical_formula_structural  NaFeS2
_chemical_formula_sum  Na2Fe2S4
_cell_volume  193.14481418527296
_cell_formula_units_Z  2
loop_
  _symmetry_equiv_pos_site_id
 _symmetry_equiv_pos_as_xyz
 1  'x, y, z'
loop_
 _atom_site_type_symbol
 _atom_site_label
 _atom_site_symmetry_multiplicity
 _atom_site_fract_x
 _atom_site_fract_y
 _atom_site_fract_z
 _atom_site_fract_occupancy
 Fe  Fe1  1  0.00000  0.00000  0.00000  1
 Fe  Fe2  1  0.50000  0.00000  0.00000  1
 Na  Na1  1  0.31642  0.31642  0.63284  1
 Na  Na2  1  0.68358  0.68358  0.36716  1
 S  S1  1  0.86333  0.28751  0.22380  1
 S  S2  1  0.36046  0.93629  0.22380  1
 S  S3  1  0.63954  0.71249  0.77620  1
 S  S4  1  0.13667  0.06371  0.77620  1
