CIF file written using JARVIS-Tools package.
data_NbSeBr3
_symmetry_space_group_name_H-M  'P2/c'
_cell_length_a       6.61191
_cell_length_b       6.94206
_cell_length_c       12.6411
_cell_angle_alpha    90
_cell_angle_beta     99.2009
_cell_angle_gamma    90

_symmetry_Int_Tables_number  13
_chemical_formula_structural  NbSeBr3
_chemical_formula_sum  Nb4Se4Br2
_cell_volume  572.766142241525
_cell_formula_units_Z  4
loop_
  _symmetry_equiv_pos_site_id
 _symmetry_equiv_pos_as_xyz
 1  'x, y, z'
loop_
 _atom_site_type_symbol
 _atom_site_label
 _atom_site_symmetry_multiplicity
 _atom_site_fract_x
 _atom_site_fract_y
 _atom_site_fract_z
 _atom_site_fract_occupancy
 Br  Br1  1  0.15837  0.31220  0.04388  1
 Br  Br2  1  0.36551  0.79910  0.07331  1
 Br  Br3  1  0.84163  0.68780  0.95612  1
 Br  Br4  1  0.63449  0.20090  0.92669  1
 Br  Br5  1  0.36551  0.20090  0.57331  1
 Br  Br6  1  0.63449  0.79910  0.42669  1
 Br  Br7  1  0.74271  0.43520  0.19263  1
 Br  Br8  1  0.74271  0.56480  0.69263  1
 Br  Br9  1  0.25729  0.56480  0.80737  1
 Br  Br10  1  0.84163  0.31220  0.45612  1
 Br  Br11  1  0.15837  0.68780  0.54388  1
 Br  Br12  1  0.25729  0.43520  0.30737  1
 Nb  Nb1  1  0.07167  0.35765  0.64959  1
 Nb  Nb2  1  0.92833  0.35765  0.85041  1
 Nb  Nb3  1  0.92833  0.64235  0.35041  1
 Nb  Nb4  1  0.07167  0.64235  0.14959  1
 Se  Se1  1  0.83395  0.08350  0.69969  1
 Se  Se2  1  0.83395  0.91650  0.19969  1
 Se  Se3  1  0.16605  0.91650  0.30031  1
 Se  Se4  1  0.16605  0.08350  0.80031  1
