CIF file written using JARVIS-Tools package.
data_LiP5
_symmetry_space_group_name_H-M  'Pna2_1'
_cell_length_a       6.12234
_cell_length_b       8.0604
_cell_length_c       9.50701
_cell_angle_alpha    90
_cell_angle_beta     90
_cell_angle_gamma    90

_symmetry_Int_Tables_number  33
_chemical_formula_structural  LiP5
_chemical_formula_sum  Li4P20
_cell_volume  469.15687154634674
_cell_formula_units_Z  4
loop_
  _symmetry_equiv_pos_site_id
 _symmetry_equiv_pos_as_xyz
 1  'x, y, z'
loop_
 _atom_site_type_symbol
 _atom_site_label
 _atom_site_symmetry_multiplicity
 _atom_site_fract_x
 _atom_site_fract_y
 _atom_site_fract_z
 _atom_site_fract_occupancy
 Li  Li1  1  0.23615  0.62665  0.63573  1
 Li  Li2  1  0.23615  0.87335  0.13573  1
 Li  Li3  1  0.73615  0.12665  0.86427  1
 Li  Li4  1  0.73615  0.37335  0.36427  1
 P  P1  1  0.14319  0.51069  0.88844  1
 P  P2  1  0.14319  0.98931  0.38844  1
 P  P3  1  0.28037  0.55958  0.10696  1
 P  P4  1  0.06719  0.14499  0.05375  1
 P  P5  1  0.29279  0.24970  0.39370  1
 P  P6  1  0.06719  0.35501  0.55375  1
 P  P7  1  0.29279  0.25030  0.89370  1
 P  P8  1  0.09831  0.15243  0.70991  1
 P  P9  1  0.28037  0.94042  0.60696  1
 P  P10  1  0.64319  0.01069  0.61156  1
 P  P11  1  0.59831  0.65243  0.79009  1
 P  P12  1  0.64319  0.48931  0.11156  1
 P  P13  1  0.79279  0.74970  0.10630  1
 P  P14  1  0.78037  0.44042  0.89304  1
 P  P15  1  0.56719  0.85501  0.94625  1
 P  P16  1  0.79279  0.75030  0.60630  1
 P  P17  1  0.78037  0.05958  0.39304  1
 P  P18  1  0.56719  0.64499  0.44625  1
 P  P19  1  0.59831  0.84757  0.29009  1
 P  P20  1  0.09831  0.34757  0.20991  1
