CIF file written using JARVIS-Tools package.
data_LiVWO6
_symmetry_space_group_name_H-M  'P-1'
_cell_length_a       5.07249
_cell_length_b       6.74986
_cell_length_c       7.24069
_cell_angle_alpha    66.0246
_cell_angle_beta     70.4103
_cell_angle_gamma    78.789

_symmetry_Int_Tables_number  2
_chemical_formula_structural  LiVWO6
_chemical_formula_sum  Li2V2W2O2
_cell_volume  212.92187364696468
_cell_formula_units_Z  2
loop_
  _symmetry_equiv_pos_site_id
 _symmetry_equiv_pos_as_xyz
 1  'x, y, z'
loop_
 _atom_site_type_symbol
 _atom_site_label
 _atom_site_symmetry_multiplicity
 _atom_site_fract_x
 _atom_site_fract_y
 _atom_site_fract_z
 _atom_site_fract_occupancy
 Li  Li1  1  0.00000  0.00000  0.00000  1
 Li  Li2  1  0.50000  -0.00000  0.50000  1
 O  O1  1  0.17023  0.72415  0.14882  1
 O  O2  1  0.31613  0.30505  0.33733  1
 O  O3  1  0.68387  0.69495  0.66267  1
 O  O4  1  0.25478  0.56316  0.56464  1
 O  O5  1  0.75568  0.56177  0.06371  1
 O  O6  1  0.04880  0.88879  0.71922  1
 O  O7  1  0.95120  0.11121  0.28078  1
 O  O8  1  0.44033  0.10411  0.77459  1
 O  O9  1  0.24432  0.43823  0.93629  1
 O  O10  1  0.74522  0.43684  0.43536  1
 O  O11  1  0.55967  0.89589  0.22541  1
 O  O12  1  0.82977  0.27585  0.85118  1
 V  V1  1  0.95328  0.65000  0.76993  1
 V  V2  1  0.04672  0.35000  0.23007  1
 W  W1  1  0.55056  0.35269  0.73497  1
 W  W2  1  0.44944  0.64731  0.26503  1
