CIF file written using JARVIS-Tools package.
data_NaErF4
_symmetry_space_group_name_H-M  'I4_1/amd'
_cell_length_a       7.63353
_cell_length_b       10.0579
_cell_length_c       6.55
_cell_angle_alpha    29.2723
_cell_angle_beta     54.357
_cell_angle_gamma    40.6294

_symmetry_Int_Tables_number  141
_chemical_formula_structural  NaErF4
_chemical_formula_sum  Na2Er2F8
_cell_volume  155.07297349175698
_cell_formula_units_Z  2
loop_
  _symmetry_equiv_pos_site_id
 _symmetry_equiv_pos_as_xyz
 1  'x, y, z'
loop_
 _atom_site_type_symbol
 _atom_site_label
 _atom_site_symmetry_multiplicity
 _atom_site_fract_x
 _atom_site_fract_y
 _atom_site_fract_z
 _atom_site_fract_occupancy
 Er  Er1  1  0.50000  0.00000  -0.00000  1
 Er  Er2  1  0.25000  0.50000  0.00001  1
 F  F1  1  0.14382  0.98117  0.26883  1
 F  F2  1  0.60619  0.01881  0.23117  1
 F  F3  1  0.37499  0.01882  0.73118  1
 F  F4  1  0.37501  0.48117  0.26883  1
 F  F5  1  0.14381  0.48119  0.76883  1
 F  F6  1  0.87499  0.98120  0.76881  1
 F  F7  1  0.87501  0.51880  0.23119  1
 F  F8  1  0.60617  0.51884  0.73117  1
 Na  Na1  1  0.00002  0.99999  0.00002  1
 Na  Na2  1  0.74999  0.50001  0.99998  1
