CIF file written using JARVIS-Tools package.
data_V2P2O7
_symmetry_space_group_name_H-M  'P2_1/c'
_cell_length_a       4.46761
_cell_length_b       10.2639
_cell_length_c       5.36552
_cell_angle_alpha    90
_cell_angle_beta     96.6539
_cell_angle_gamma    90

_symmetry_Int_Tables_number  14
_chemical_formula_structural  V2P2O7
_chemical_formula_sum  V4P4O4
_cell_volume  244.37891586382224
_cell_formula_units_Z  2
loop_
  _symmetry_equiv_pos_site_id
 _symmetry_equiv_pos_as_xyz
 1  'x, y, z'
loop_
 _atom_site_type_symbol
 _atom_site_label
 _atom_site_symmetry_multiplicity
 _atom_site_fract_x
 _atom_site_fract_y
 _atom_site_fract_z
 _atom_site_fract_occupancy
 O  O1  1  0.71282  0.54566  0.36494  1
 O  O2  1  0.61837  0.67495  0.95912  1
 O  O3  1  0.00000  0.50000  0.00000  1
 O  O4  1  0.28718  0.04566  0.13506  1
 O  O5  1  0.11519  0.79732  0.74746  1
 O  O6  1  0.88481  0.29732  0.75254  1
 O  O7  1  0.71282  0.95434  0.86494  1
 O  O8  1  0.38163  0.17495  0.54088  1
 O  O9  1  0.61837  0.82505  0.45912  1
 O  O10  1  -0.00000  0.00000  0.50000  1
 O  O11  1  0.38163  0.32505  0.04088  1
 O  O12  1  0.11519  0.70268  0.24746  1
 O  O13  1  0.88481  0.20268  0.25254  1
 O  O14  1  0.28718  0.45434  0.63506  1
 P  P1  1  0.85639  0.61123  0.15004  1
 P  P2  1  0.14361  0.11123  0.34996  1
 P  P3  1  0.85639  0.88877  0.65004  1
 P  P4  1  0.14361  0.38877  0.84996  1
 V  V1  1  0.40224  0.84364  0.07901  1
 V  V2  1  0.59776  0.34364  0.42099  1
 V  V3  1  0.40224  0.65636  0.57901  1
 V  V4  1  0.59776  0.15636  0.92099  1
