CIF file written using JARVIS-Tools package.
data_Nb3Cl8
_symmetry_space_group_name_H-M  'P-3m1'
_cell_length_a       6.7933
_cell_length_b       6.7933
_cell_length_c       12.2828
_cell_angle_alpha    90
_cell_angle_beta     90
_cell_angle_gamma    120

_symmetry_Int_Tables_number  164
_chemical_formula_structural  Nb3Cl8
_chemical_formula_sum  Nb6Cl6
_cell_volume  490.8968623645204
_cell_formula_units_Z  2
loop_
  _symmetry_equiv_pos_site_id
 _symmetry_equiv_pos_as_xyz
 1  'x, y, z'
loop_
 _atom_site_type_symbol
 _atom_site_label
 _atom_site_symmetry_multiplicity
 _atom_site_fract_x
 _atom_site_fract_y
 _atom_site_fract_z
 _atom_site_fract_occupancy
 Cl  Cl1  1  0.83583  0.67167  0.36433  1
 Cl  Cl2  1  0.66667  0.33333  0.59535  1
 Cl  Cl3  1  0.33333  0.66667  0.40465  1
 Cl  Cl4  1  0.33333  0.66667  0.85718  1
 Cl  Cl5  1  0.66667  0.33333  0.14282  1
 Cl  Cl6  1  0.66427  0.83214  0.11868  1
 Cl  Cl7  1  0.16417  0.83583  0.63567  1
 Cl  Cl8  1  0.67167  0.83583  0.63567  1
 Cl  Cl9  1  0.83583  0.16417  0.36433  1
 Cl  Cl10  1  0.32833  0.16417  0.36433  1
 Cl  Cl11  1  0.16786  0.33573  0.11868  1
 Cl  Cl12  1  0.33573  0.16786  0.88132  1
 Cl  Cl13  1  0.83214  0.16786  0.88132  1
 Cl  Cl14  1  0.83214  0.66427  0.88132  1
 Cl  Cl15  1  0.16786  0.83214  0.11868  1
 Cl  Cl16  1  0.16417  0.32833  0.63567  1
 Nb  Nb1  1  0.05579  0.52790  0.25368  1
 Nb  Nb2  1  0.47210  0.52790  0.25368  1
 Nb  Nb3  1  0.47210  0.94421  0.25368  1
 Nb  Nb4  1  0.52790  0.47210  0.74632  1
 Nb  Nb5  1  0.94421  0.47210  0.74632  1
 Nb  Nb6  1  0.52790  0.05579  0.74632  1
