CIF file written using JARVIS-Tools package.
data_Ba3V2O8
_symmetry_space_group_name_H-M  'R-3m'
_cell_length_a       7.93189
_cell_length_b       7.93189
_cell_length_c       7.93189
_cell_angle_alpha    43.079
_cell_angle_beta     43.079
_cell_angle_gamma    43.079

_symmetry_Int_Tables_number  166
_chemical_formula_structural  Ba3V2O8
_chemical_formula_sum  Ba3V2O8
_cell_volume  211.0422296156486
_cell_formula_units_Z  1
loop_
  _symmetry_equiv_pos_site_id
 _symmetry_equiv_pos_as_xyz
 1  'x, y, z'
loop_
 _atom_site_type_symbol
 _atom_site_label
 _atom_site_symmetry_multiplicity
 _atom_site_fract_x
 _atom_site_fract_y
 _atom_site_fract_z
 _atom_site_fract_occupancy
 Ba  Ba1  1  0.20525  0.20525  0.20525  1
 Ba  Ba2  1  0.79475  0.79475  0.79475  1
 Ba  Ba3  1  0.00000  0.00000  0.00000  1
 O  O1  1  0.67232  0.67232  0.67232  1
 O  O2  1  0.32768  0.32768  0.32768  1
 O  O3  1  0.24126  0.72719  0.72719  1
 O  O4  1  0.72719  0.72719  0.24126  1
 O  O5  1  0.72719  0.24126  0.72719  1
 O  O6  1  0.75874  0.27281  0.27281  1
 O  O7  1  0.27281  0.75874  0.27281  1
 O  O8  1  0.27281  0.27281  0.75874  1
 V  V1  1  0.59248  0.59248  0.59248  1
 V  V2  1  0.40752  0.40752  0.40752  1
