CIF file written using JARVIS-Tools package.
data_SCl2
_symmetry_space_group_name_H-M  'P2_12_12_1'
_cell_length_a       3.99994
_cell_length_b       9.09019
_cell_length_c       16.885
_cell_angle_alpha    90
_cell_angle_beta     90
_cell_angle_gamma    90

_symmetry_Int_Tables_number  19
_chemical_formula_structural  SCl2
_chemical_formula_sum  S8Cl6
_cell_volume  613.9409093575689
_cell_formula_units_Z  8
loop_
  _symmetry_equiv_pos_site_id
 _symmetry_equiv_pos_as_xyz
 1  'x, y, z'
loop_
 _atom_site_type_symbol
 _atom_site_label
 _atom_site_symmetry_multiplicity
 _atom_site_fract_x
 _atom_site_fract_y
 _atom_site_fract_z
 _atom_site_fract_occupancy
 Cl  Cl1  1  0.52571  0.97833  0.40950  1
 Cl  Cl2  1  0.02995  0.29384  0.42045  1
 Cl  Cl3  1  0.52995  0.20616  0.57955  1
 Cl  Cl4  1  -0.02995  0.79384  0.07955  1
 Cl  Cl5  1  0.57313  0.63177  0.42638  1
 Cl  Cl6  1  0.05971  0.49822  0.26561  1
 Cl  Cl7  1  0.55971  0.00178  0.73439  1
 Cl  Cl8  1  0.47005  0.70616  0.92045  1
 Cl  Cl9  1  0.44029  0.50178  0.76561  1
 Cl  Cl10  1  0.47429  0.47833  0.09050  1
 Cl  Cl11  1  0.97429  0.02167  0.90950  1
 Cl  Cl12  1  0.07313  0.86823  0.57362  1
 Cl  Cl13  1  0.02571  0.52167  0.59050  1
 Cl  Cl14  1  0.42687  0.13177  0.07362  1
 Cl  Cl15  1  0.92687  0.36823  0.92638  1
 Cl  Cl16  1  0.94029  0.99822  0.23439  1
 S  S1  1  0.87038  0.71083  0.64414  1
 S  S2  1  0.37038  0.78917  0.35586  1
 S  S3  1  0.12962  0.21083  0.85586  1
 S  S4  1  0.62962  0.28917  0.14414  1
 S  S5  1  0.26096  0.69826  0.80816  1
 S  S6  1  0.76096  0.80174  0.19184  1
 S  S7  1  0.73904  0.19826  0.69184  1
 S  S8  1  0.23904  0.30174  0.30816  1
