CIF file written using JARVIS-Tools package.
data_Y2GaHg
_symmetry_space_group_name_H-M  'C2/m'
_cell_length_a       12.5
_cell_length_b       8.81653
_cell_length_c       8.81653
_cell_angle_alpha    33.9543
_cell_angle_beta     19.7344
_cell_angle_gamma    19.7344

_symmetry_Int_Tables_number  12
_chemical_formula_structural  Y2GaHg
_chemical_formula_sum  Y2GaHg
_cell_volume  96.22135541159643
_cell_formula_units_Z  1
loop_
  _symmetry_equiv_pos_site_id
 _symmetry_equiv_pos_as_xyz
 1  'x, y, z'
loop_
 _atom_site_type_symbol
 _atom_site_label
 _atom_site_symmetry_multiplicity
 _atom_site_fract_x
 _atom_site_fract_y
 _atom_site_fract_z
 _atom_site_fract_occupancy
 Ga  Ga1  1  0.00000  -0.00000  -0.00000  1
 Hg  Hg1  1  0.50000  0.00000  0.00000  1
 Y  Y1  1  0.75167  -0.00097  -0.00097  1
 Y  Y2  1  0.24834  0.00097  0.00097  1
