CIF file written using JARVIS-Tools package.
data_Ho2TeO2
_symmetry_space_group_name_H-M  'P-3m1'
_cell_length_a       3.88168
_cell_length_b       3.88198
_cell_length_c       7.17582
_cell_angle_alpha    89.997
_cell_angle_beta     90.0015
_cell_angle_gamma    120.005

_symmetry_Int_Tables_number  164
_chemical_formula_structural  Ho2TeO2
_chemical_formula_sum  Ho2TeO2
_cell_volume  93.6384217010545
_cell_formula_units_Z  1
loop_
  _symmetry_equiv_pos_site_id
 _symmetry_equiv_pos_as_xyz
 1  'x, y, z'
loop_
 _atom_site_type_symbol
 _atom_site_label
 _atom_site_symmetry_multiplicity
 _atom_site_fract_x
 _atom_site_fract_y
 _atom_site_fract_z
 _atom_site_fract_occupancy
 Ho  Ho1  1  0.33329  0.66668  0.30482  1
 Ho  Ho2  1  0.66661  0.33332  0.69518  1
 O  O1  1  0.33328  0.66666  0.61976  1
 O  O2  1  0.66660  0.33333  0.38024  1
 Te  Te1  1  0.00001  0.00000  -0.00000  1
