CIF file written using JARVIS-Tools package.
data_Nb2O5
_symmetry_space_group_name_H-M  'C2/c'
_cell_length_a       4.95053
_cell_length_b       5.63951
_cell_length_c       6.94523
_cell_angle_alpha    103.852
_cell_angle_beta     110.879
_cell_angle_gamma    90

_symmetry_Int_Tables_number  15
_chemical_formula_structural  Nb2O5
_chemical_formula_sum  Nb4O0
_cell_volume  175.1194078472251
_cell_formula_units_Z  2
loop_
  _symmetry_equiv_pos_site_id
 _symmetry_equiv_pos_as_xyz
 1  'x, y, z'
loop_
 _atom_site_type_symbol
 _atom_site_label
 _atom_site_symmetry_multiplicity
 _atom_site_fract_x
 _atom_site_fract_y
 _atom_site_fract_z
 _atom_site_fract_occupancy
 Nb  Nb1  1  0.38079  0.25035  0.28011  1
 Nb  Nb2  1  0.10068  0.24965  0.71989  1
 Nb  Nb3  1  0.61921  0.74965  0.71989  1
 Nb  Nb4  1  0.89932  0.75035  0.28011  1
 O  O1  1  0.72164  0.37223  0.58808  1
 O  O2  1  0.13356  0.12777  0.41192  1
 O  O3  1  0.27836  0.62777  0.41192  1
 O  O4  1  0.86644  0.87223  0.58808  1
 O  O5  1  0.89960  0.75000  -0.00000  1
 O  O6  1  0.10040  0.25000  0.00000  1
 O  O7  1  0.33537  0.53107  0.78188  1
 O  O8  1  0.55349  0.96893  0.21812  1
 O  O9  1  0.66463  0.46893  0.21812  1
 O  O10  1  0.44651  0.03107  0.78188  1
