CIF file written using JARVIS-Tools package.
data_YScAu2
_symmetry_space_group_name_H-M  'C2/m'
_cell_length_a       11.5261
_cell_length_b       8.86391
_cell_length_c       8.8639
_cell_angle_alpha    27.4819
_cell_angle_beta     18.8587
_cell_angle_gamma    18.8587

_symmetry_Int_Tables_number  12
_chemical_formula_structural  YScAu2
_chemical_formula_sum  YScAu2
_cell_volume  94.31447200506354
_cell_formula_units_Z  1
loop_
  _symmetry_equiv_pos_site_id
 _symmetry_equiv_pos_as_xyz
 1  'x, y, z'
loop_
 _atom_site_type_symbol
 _atom_site_label
 _atom_site_symmetry_multiplicity
 _atom_site_fract_x
 _atom_site_fract_y
 _atom_site_fract_z
 _atom_site_fract_occupancy
 Au  Au1  1  0.69397  0.04507  0.04507  1
 Au  Au2  1  0.30603  -0.04507  -0.04507  1
 Sc  Sc1  1  0.00000  0.00000  0.00000  1
 Y  Y1  1  0.50000  0.00000  0.00000  1
