CIF file written using JARVIS-Tools package.
data_NaNiBO3
_symmetry_space_group_name_H-M  'P-1'
_cell_length_a       4.9991
_cell_length_b       5.00143
_cell_length_c       5.54989
_cell_angle_alpha    82.1807
_cell_angle_beta     101.605
_cell_angle_gamma    119.221

_symmetry_Int_Tables_number  2
_chemical_formula_structural  NaNiBO3
_chemical_formula_sum  Na2Ni2B2O6
_cell_volume  118.51155581251224
_cell_formula_units_Z  2
loop_
  _symmetry_equiv_pos_site_id
 _symmetry_equiv_pos_as_xyz
 1  'x, y, z'
loop_
 _atom_site_type_symbol
 _atom_site_label
 _atom_site_symmetry_multiplicity
 _atom_site_fract_x
 _atom_site_fract_y
 _atom_site_fract_z
 _atom_site_fract_occupancy
 B  B1  1  0.32342  0.65721  0.74689  1
 B  B2  1  0.67347  0.33736  0.24981  1
 Na  Na1  1  0.65313  0.32033  0.74601  1
 Na  Na2  1  0.34380  0.67425  0.25069  1
 Ni  Ni1  1  0.99845  0.99729  0.49837  1
 Ni  Ni2  1  0.99844  0.99726  0.99836  1
 O  O1  1  0.12880  0.34433  0.72836  1
 O  O2  1  0.86808  0.65023  0.26835  1
 O  O3  1  0.62779  0.78285  0.70703  1
 O  O4  1  0.21330  0.84201  0.80643  1
 O  O5  1  0.78362  0.15259  0.19027  1
 O  O6  1  0.36910  0.21170  0.28966  1
