CIF file written using JARVIS-Tools package.
data_BaAgO2
_symmetry_space_group_name_H-M  'Cmcm'
_cell_length_a       3.85219
_cell_length_b       4.36569
_cell_length_c       8.98981
_cell_angle_alpha    90
_cell_angle_beta     77.6283
_cell_angle_gamma    90

_symmetry_Int_Tables_number  63
_chemical_formula_structural  BaAgO2
_chemical_formula_sum  Ba2Ag2O4
_cell_volume  147.67526838694855
_cell_formula_units_Z  2
loop_
  _symmetry_equiv_pos_site_id
 _symmetry_equiv_pos_as_xyz
 1  'x, y, z'
loop_
 _atom_site_type_symbol
 _atom_site_label
 _atom_site_symmetry_multiplicity
 _atom_site_fract_x
 _atom_site_fract_y
 _atom_site_fract_z
 _atom_site_fract_occupancy
 Ag  Ag1  1  0.93758  0.25000  0.12483  1
 Ag  Ag2  1  0.06242  0.75000  0.87517  1
 Ba  Ba1  1  0.66809  0.25000  0.66381  1
 Ba  Ba2  1  0.33191  0.75000  0.33619  1
 O  O1  1  0.81810  0.25000  0.36381  1
 O  O2  1  0.05798  0.25000  0.88403  1
 O  O3  1  0.18190  0.75000  0.63619  1
 O  O4  1  0.94202  0.75000  0.11597  1
