CIF file written using JARVIS-Tools package.
data_MoWSe4
_symmetry_space_group_name_H-M  'P-3m1'
_cell_length_a       3.32748
_cell_length_b       3.3275
_cell_length_c       35.2586
_cell_angle_alpha    90.001
_cell_angle_beta     90
_cell_angle_gamma    120

_symmetry_Int_Tables_number  164
_chemical_formula_structural  MoWSe4
_chemical_formula_sum  Mo2W2Se8
_cell_volume  338.0891944018116
_cell_formula_units_Z  2
loop_
  _symmetry_equiv_pos_site_id
 _symmetry_equiv_pos_as_xyz
 1  'x, y, z'
loop_
 _atom_site_type_symbol
 _atom_site_label
 _atom_site_symmetry_multiplicity
 _atom_site_fract_x
 _atom_site_fract_y
 _atom_site_fract_z
 _atom_site_fract_occupancy
 Mo  Mo1  1  0.33331  0.66662  0.09479  1
 Mo  Mo2  1  0.66669  0.33338  0.65667  1
 Se  Se1  1  0.33335  0.66669  0.32968  1
 Se  Se2  1  0.33336  0.66672  0.70408  1
 Se  Se3  1  0.66664  0.33328  0.04738  1
 Se  Se4  1  0.66665  0.33331  0.42178  1
 Se  Se5  1  0.66665  0.33330  0.14225  1
 Se  Se6  1  0.66666  0.33333  0.51722  1
 Se  Se7  1  0.33334  0.66667  0.23424  1
 Se  Se8  1  0.33335  0.66670  0.60920  1
 W  W1  1  0.33332  0.66664  0.46950  1
 W  W2  1  0.66668  0.33336  0.28196  1
