CIF file written using JARVIS-Tools package.
data_Co3O2F4
_symmetry_space_group_name_H-M  'P2_1'
_cell_length_a       5.43844
_cell_length_b       4.50176
_cell_length_c       7.5349
_cell_angle_alpha    90
_cell_angle_beta     93.381
_cell_angle_gamma    90

_symmetry_Int_Tables_number  4
_chemical_formula_structural  Co3O2F4
_chemical_formula_sum  Co6O4F8
_cell_volume  184.15230689063492
_cell_formula_units_Z  2
loop_
  _symmetry_equiv_pos_site_id
 _symmetry_equiv_pos_as_xyz
 1  'x, y, z'
loop_
 _atom_site_type_symbol
 _atom_site_label
 _atom_site_symmetry_multiplicity
 _atom_site_fract_x
 _atom_site_fract_y
 _atom_site_fract_z
 _atom_site_fract_occupancy
 Co  Co1  1  0.56896  0.48933  0.85110  1
 Co  Co2  1  0.90231  0.52673  0.17371  1
 Co  Co3  1  0.22399  0.48702  0.50091  1
 Co  Co4  1  0.77601  0.98702  0.49909  1
 Co  Co5  1  0.43104  0.98933  0.14890  1
 Co  Co6  1  0.09769  0.02673  0.82629  1
 F  F1  1  0.28413  0.71832  0.73123  1
 F  F2  1  0.20984  0.29330  0.25200  1
 F  F3  1  0.89400  0.29842  0.94114  1
 F  F4  1  0.54812  0.30258  0.60279  1
 F  F5  1  0.71587  0.21832  0.26877  1
 F  F6  1  0.45188  0.80258  0.39721  1
 F  F7  1  0.10600  0.79842  0.05886  1
 F  F8  1  0.79016  0.79330  0.74800  1
 O  O1  1  0.38032  0.19087  0.93011  1
 O  O2  1  0.95122  0.69344  0.39623  1
 O  O3  1  0.61968  0.69087  0.06989  1
 O  O4  1  0.04878  0.19344  0.60377  1
