CIF file written using JARVIS-Tools package.
data_Sc2HgPt
_symmetry_space_group_name_H-M  'I4/mmm'
_cell_length_a       13.8953
_cell_length_b       7.44724
_cell_length_c       7.44725
_cell_angle_alpha    29.5235
_cell_angle_beta     21.1063
_cell_angle_gamma    21.1063

_symmetry_Int_Tables_number  139
_chemical_formula_structural  Sc2HgPt
_chemical_formula_sum  Sc2HgPt
_cell_volume  99.9315381538417
_cell_formula_units_Z  1
loop_
  _symmetry_equiv_pos_site_id
 _symmetry_equiv_pos_as_xyz
 1  'x, y, z'
loop_
 _atom_site_type_symbol
 _atom_site_label
 _atom_site_symmetry_multiplicity
 _atom_site_fract_x
 _atom_site_fract_y
 _atom_site_fract_z
 _atom_site_fract_occupancy
 Hg  Hg1  1  0.50000  -0.00000  -0.00000  1
 Pt  Pt1  1  0.00000  0.00000  0.00000  1
 Sc  Sc1  1  0.81814  -0.00000  -0.00000  1
 Sc  Sc2  1  0.18186  0.00000  0.00000  1
