CIF file written using JARVIS-Tools package.
data_Na2CO5
_symmetry_space_group_name_H-M  'Cm'
_cell_length_a       5.29904
_cell_length_b       5.29905
_cell_length_c       6.31153
_cell_angle_alpha    69.2822
_cell_angle_beta     69.2822
_cell_angle_gamma    55.4264

_symmetry_Int_Tables_number  8
_chemical_formula_structural  Na2CO5
_chemical_formula_sum  Na2CO5
_cell_volume  133.77060273786248
_cell_formula_units_Z  1
loop_
  _symmetry_equiv_pos_site_id
 _symmetry_equiv_pos_as_xyz
 1  'x, y, z'
loop_
 _atom_site_type_symbol
 _atom_site_label
 _atom_site_symmetry_multiplicity
 _atom_site_fract_x
 _atom_site_fract_y
 _atom_site_fract_z
 _atom_site_fract_occupancy
 C  C1  1  0.64584  0.64584  0.76733  1
 Na  Na1  1  0.91723  0.91723  0.01749  1
 Na  Na2  1  0.00532  0.00532  0.52340  1
 O  O1  1  0.30051  0.56240  0.29292  1
 O  O2  1  0.56240  0.30051  0.29292  1
 O  O3  1  0.36318  0.80993  0.73657  1
 O  O4  1  0.80993  0.36318  0.73657  1
 O  O5  1  0.76159  0.76159  0.82680  1
