CIF file written using JARVIS-Tools package.
data_Na3InCl6
_symmetry_space_group_name_H-M  'P-31c'
_cell_length_a       6.87614
_cell_length_b       6.87614
_cell_length_c       12.4149
_cell_angle_alpha    90
_cell_angle_beta     90
_cell_angle_gamma    120

_symmetry_Int_Tables_number  163
_chemical_formula_structural  Na3InCl6
_chemical_formula_sum  Na6In2Cl2
_cell_volume  508.3512534749343
_cell_formula_units_Z  2
loop_
  _symmetry_equiv_pos_site_id
 _symmetry_equiv_pos_as_xyz
 1  'x, y, z'
loop_
 _atom_site_type_symbol
 _atom_site_label
 _atom_site_symmetry_multiplicity
 _atom_site_fract_x
 _atom_site_fract_y
 _atom_site_fract_z
 _atom_site_fract_occupancy
 Cl  Cl1  1  0.35960  0.31547  0.37258  1
 Cl  Cl2  1  0.35960  0.04414  0.12742  1
 Cl  Cl3  1  0.04414  0.35960  0.62742  1
 Cl  Cl4  1  0.68453  0.64040  0.12742  1
 Cl  Cl5  1  0.64040  0.68453  0.62742  1
 Cl  Cl6  1  0.95586  0.31547  0.12742  1
 Cl  Cl7  1  0.64040  0.95586  0.87258  1
 Cl  Cl8  1  0.31547  0.35960  0.87258  1
 Cl  Cl9  1  0.04414  0.68453  0.87258  1
 Cl  Cl10  1  0.68453  0.04414  0.37258  1
 Cl  Cl11  1  0.95586  0.64040  0.37258  1
 Cl  Cl12  1  0.31547  0.95586  0.62742  1
 In  In1  1  0.66667  0.33333  0.25000  1
 In  In2  1  0.33333  0.66667  0.75000  1
 Na  Na1  1  0.66667  0.33333  0.53867  1
 Na  Na2  1  0.66667  0.33333  0.96133  1
 Na  Na3  1  0.00000  0.00000  0.25000  1
 Na  Na4  1  0.00000  0.00000  0.75000  1
 Na  Na5  1  0.33333  0.66667  0.46133  1
 Na  Na6  1  0.33333  0.66667  0.03867  1
