CIF file written using JARVIS-Tools package.
data_LiCo2C4O12
_symmetry_space_group_name_H-M  'P1'
_cell_length_a       5.0367
_cell_length_b       6.00496
_cell_length_c       7.5289
_cell_angle_alpha    89.7899
_cell_angle_beta     91.0597
_cell_angle_gamma    112.253

_symmetry_Int_Tables_number  1
_chemical_formula_structural  LiCo2C4O12
_chemical_formula_sum  LiCo2C4O2
_cell_volume  210.71569499797238
_cell_formula_units_Z  1
loop_
  _symmetry_equiv_pos_site_id
 _symmetry_equiv_pos_as_xyz
 1  'x, y, z'
loop_
 _atom_site_type_symbol
 _atom_site_label
 _atom_site_symmetry_multiplicity
 _atom_site_fract_x
 _atom_site_fract_y
 _atom_site_fract_z
 _atom_site_fract_occupancy
 C  C1  1  0.75994  0.87621  0.73334  1
 C  C2  1  0.26371  0.36686  0.76397  1
 C  C3  1  0.72882  0.62733  0.23045  1
 C  C4  1  0.25100  0.12283  0.26806  1
 Co  Co1  1  0.99748  0.99746  0.00031  1
 Co  Co2  1  0.49712  0.50803  0.49784  1
 Li  Li1  1  0.79617  0.19787  0.44493  1
 O  O1  1  0.64754  0.93644  0.86793  1
 O  O2  1  0.63421  0.83146  0.57828  1
 O  O3  1  0.39502  0.18529  0.41622  1
 O  O4  1  0.01725  0.88438  0.76493  1
 O  O5  1  0.47102  0.61396  0.25858  1
 O  O6  1  0.14381  0.31216  0.91518  1
 O  O7  1  0.13415  0.40741  0.62243  1
 O  O8  1  0.85753  0.68168  0.08224  1
 O  O9  1  -0.00921  0.11499  0.24618  1
 O  O10  1  0.52964  0.40363  0.73670  1
 O  O11  1  0.84601  0.56825  0.37019  1
 O  O12  1  0.35251  0.05749  0.13209  1
