CIF file written using JARVIS-Tools package.
data_RbPb2Br5
_symmetry_space_group_name_H-M  'I4/mcm'
_cell_length_a       8.46476
_cell_length_b       8.46477
_cell_length_c       9.35415
_cell_angle_alpha    116.902
_cell_angle_beta     116.902
_cell_angle_gamma    90

_symmetry_Int_Tables_number  140
_chemical_formula_structural  RbPb2Br5
_chemical_formula_sum  Rb2Pb4Br0
_cell_volume  515.0699762251494
_cell_formula_units_Z  2
loop_
  _symmetry_equiv_pos_site_id
 _symmetry_equiv_pos_as_xyz
 1  'x, y, z'
loop_
 _atom_site_type_symbol
 _atom_site_label
 _atom_site_symmetry_multiplicity
 _atom_site_fract_x
 _atom_site_fract_y
 _atom_site_fract_z
 _atom_site_fract_occupancy
 Br  Br1  1  0.20872  0.70872  0.72452  1
 Br  Br2  1  0.48420  0.98420  0.27548  1
 Br  Br3  1  0.00000  0.00000  0.00000  1
 Br  Br4  1  0.50000  0.50000  -0.00000  1
 Br  Br5  1  0.79128  0.29128  0.27548  1
 Br  Br6  1  0.98420  0.79128  0.27548  1
 Br  Br7  1  0.29128  0.48420  0.27548  1
 Br  Br8  1  0.01580  0.20872  0.72452  1
 Br  Br9  1  0.51580  0.01580  0.72452  1
 Br  Br10  1  0.70872  0.51580  0.72452  1
 Pb  Pb1  1  0.33674  0.16326  -0.00000  1
 Pb  Pb2  1  0.16326  0.66326  -0.00000  1
 Pb  Pb3  1  0.66326  0.83674  0.00000  1
 Pb  Pb4  1  0.83674  0.33674  0.00000  1
 Rb  Rb1  1  0.25000  0.25000  0.50000  1
 Rb  Rb2  1  0.75000  0.75000  0.50000  1
