CIF file written using JARVIS-Tools package.
data_Sr2PAu
_symmetry_space_group_name_H-M  'R-3m'
_cell_length_a       12.5954
_cell_length_b       4.51736
_cell_length_c       4.51728
_cell_angle_alpha    60.0109
_cell_angle_beta     44.195
_cell_angle_gamma    44.1943

_symmetry_Int_Tables_number  166
_chemical_formula_structural  Sr2PAu
_chemical_formula_sum  Sr2PAu
_cell_volume  124.84707399344276
_cell_formula_units_Z  1
loop_
  _symmetry_equiv_pos_site_id
 _symmetry_equiv_pos_as_xyz
 1  'x, y, z'
loop_
 _atom_site_type_symbol
 _atom_site_label
 _atom_site_symmetry_multiplicity
 _atom_site_fract_x
 _atom_site_fract_y
 _atom_site_fract_z
 _atom_site_fract_occupancy
 Au  Au1  1  0.50000  0.00000  0.00000  1
 P  P1  1  -0.00000  -0.00000  -0.00000  1
 Sr  Sr1  1  0.78274  -0.04371  -0.04371  1
 Sr  Sr2  1  0.21726  0.04371  0.04371  1
