CIF file written using JARVIS-Tools package.
data_BNCl2
_symmetry_space_group_name_H-M  'R3'
_cell_length_a       6.04913
_cell_length_b       6.04912
_cell_length_c       6.04913
_cell_angle_alpha    93.3125
_cell_angle_beta     93.3124
_cell_angle_gamma    93.3125

_symmetry_Int_Tables_number  146
_chemical_formula_structural  BNCl2
_chemical_formula_sum  B3N3Cl6
_cell_volume  220.1950110650978
_cell_formula_units_Z  3
loop_
  _symmetry_equiv_pos_site_id
 _symmetry_equiv_pos_as_xyz
 1  'x, y, z'
loop_
 _atom_site_type_symbol
 _atom_site_label
 _atom_site_symmetry_multiplicity
 _atom_site_fract_x
 _atom_site_fract_y
 _atom_site_fract_z
 _atom_site_fract_occupancy
 B  B1  1  0.18891  0.93277  0.87442  1
 B  B2  1  0.87442  0.18891  0.93277  1
 B  B3  1  0.93277  0.87442  0.18891  1
 Cl  Cl1  1  0.40920  0.85060  0.72086  1
 Cl  Cl2  1  0.72086  0.40920  0.85060  1
 Cl  Cl3  1  0.85060  0.72086  0.40920  1
 Cl  Cl4  1  0.59690  0.13969  0.26681  1
 Cl  Cl5  1  0.26681  0.59690  0.13969  1
 Cl  Cl6  1  0.13969  0.26681  0.59690  1
 N  N1  1  0.81713  0.06296  0.11876  1
 N  N2  1  0.11876  0.81713  0.06296  1
 N  N3  1  0.06296  0.11876  0.81713  1
