CIF file written using JARVIS-Tools package.
data_Li2MnCo3O8
_symmetry_space_group_name_H-M  'C2/m'
_cell_length_a       5.63599
_cell_length_b       5.66578
_cell_length_c       5.74867
_cell_angle_alpha    119.524
_cell_angle_beta     90.7682
_cell_angle_gamma    59.825

_symmetry_Int_Tables_number  12
_chemical_formula_structural  Li2MnCo3O8
_chemical_formula_sum  Li2MnCo3O8
_cell_volume  131.21823894244832
_cell_formula_units_Z  1
loop_
  _symmetry_equiv_pos_site_id
 _symmetry_equiv_pos_as_xyz
 1  'x, y, z'
loop_
 _atom_site_type_symbol
 _atom_site_label
 _atom_site_symmetry_multiplicity
 _atom_site_fract_x
 _atom_site_fract_y
 _atom_site_fract_z
 _atom_site_fract_occupancy
 Co  Co1  1  -0.00000  0.50000  0.00000  1
 Co  Co2  1  0.50000  0.00000  0.00000  1
 Co  Co3  1  0.50000  0.50000  0.00000  1
 Li  Li1  1  0.50000  0.00000  0.50000  1
 Li  Li2  1  0.50000  0.50000  0.50000  1
 Mn  Mn1  1  0.00000  0.00000  0.00000  1
 O  O1  1  0.23849  0.02318  0.78613  1
 O  O2  1  0.23849  0.52446  0.78613  1
 O  O3  1  0.27231  0.46405  0.20040  1
 O  O4  1  0.72989  0.03137  0.79263  1
 O  O5  1  0.27011  0.96863  0.20737  1
 O  O6  1  0.72769  0.53595  0.79960  1
 O  O7  1  0.76151  0.47554  0.21387  1
 O  O8  1  0.76151  0.97682  0.21387  1
