CIF file written using JARVIS-Tools package.
data_Cd2PbO4
_symmetry_space_group_name_H-M  'Pbam'
_cell_length_a       3.34883
_cell_length_b       5.75613
_cell_length_c       10.0823
_cell_angle_alpha    89.9996
_cell_angle_beta     90.0001
_cell_angle_gamma    89.9999

_symmetry_Int_Tables_number  55
_chemical_formula_structural  Cd2PbO4
_chemical_formula_sum  Cd4Pb2O8
_cell_volume  194.34911715328565
_cell_formula_units_Z  2
loop_
  _symmetry_equiv_pos_site_id
 _symmetry_equiv_pos_as_xyz
 1  'x, y, z'
loop_
 _atom_site_type_symbol
 _atom_site_label
 _atom_site_symmetry_multiplicity
 _atom_site_fract_x
 _atom_site_fract_y
 _atom_site_fract_z
 _atom_site_fract_occupancy
 Cd  Cd1  1  0.50000  0.93692  0.32338  1
 Cd  Cd2  1  0.50000  0.56308  0.82338  1
 Cd  Cd3  1  0.50000  0.43692  0.17662  1
 Cd  Cd4  1  0.50000  0.06308  0.67662  1
 O  O1  1  -0.00000  0.86167  0.79771  1
 O  O2  1  0.50000  0.75042  0.03624  1
 O  O3  1  0.50000  0.74958  0.53624  1
 O  O4  1  -0.00000  0.63833  0.29771  1
 O  O5  1  0.00000  0.36167  0.70229  1
 O  O6  1  0.50000  0.25043  0.46376  1
 O  O7  1  0.50000  0.24958  0.96376  1
 O  O8  1  0.00000  0.13833  0.20229  1
 Pb  Pb1  1  -0.00000  0.00000  0.00000  1
 Pb  Pb2  1  0.00000  0.50000  0.50000  1
