CIF file written using JARVIS-Tools package.
data_Fe2C3O9
_symmetry_space_group_name_H-M  'R3'
_cell_length_a       7.57551
_cell_length_b       7.57548
_cell_length_c       7.57545
_cell_angle_alpha    109.134
_cell_angle_beta     109.132
_cell_angle_gamma    109.135

_symmetry_Int_Tables_number  146
_chemical_formula_structural  Fe2C3O9
_chemical_formula_sum  Fe4C6O8
_cell_volume  338.78294708790895
_cell_formula_units_Z  2
loop_
  _symmetry_equiv_pos_site_id
 _symmetry_equiv_pos_as_xyz
 1  'x, y, z'
loop_
 _atom_site_type_symbol
 _atom_site_label
 _atom_site_symmetry_multiplicity
 _atom_site_fract_x
 _atom_site_fract_y
 _atom_site_fract_z
 _atom_site_fract_occupancy
 C  C1  1  0.17500  0.25667  0.94561  1
 C  C2  1  0.41106  0.80718  0.59935  1
 C  C3  1  0.25672  0.94615  0.17437  1
 C  C4  1  0.80726  0.59991  0.41046  1
 C  C5  1  0.94620  0.17493  0.25614  1
 C  C6  1  0.59997  0.41099  0.80663  1
 Fe  Fe1  1  0.04255  0.54778  0.16366  1
 Fe  Fe2  1  0.45034  0.45027  0.44972  1
 Fe  Fe3  1  0.16428  0.04248  0.54724  1
 Fe  Fe4  1  0.54785  0.16421  0.04193  1
 O  O1  1  0.47343  0.70490  0.68388  1
 O  O2  1  0.08127  0.36916  0.94863  1
 O  O3  1  0.07833  0.77524  0.09332  1
 O  O4  1  0.09396  0.07828  0.77471  1
 O  O5  1  0.94926  0.08123  0.36866  1
 O  O6  1  0.40657  0.97874  0.70891  1
 O  O7  1  0.34611  0.74030  0.39640  1
 O  O8  1  0.10959  0.35271  0.31466  1
 O  O9  1  0.68450  0.47336  0.70435  1
 O  O10  1  0.31527  0.10954  0.35216  1
 O  O11  1  0.70953  0.40649  0.97818  1
 O  O12  1  0.70498  0.68444  0.47284  1
 O  O13  1  0.36921  0.94919  0.08065  1
 O  O14  1  0.74036  0.39696  0.34551  1
 O  O15  1  0.97881  0.70946  0.40596  1
 O  O16  1  0.35279  0.31524  0.10901  1
 O  O17  1  0.39703  0.34605  0.73976  1
 O  O18  1  0.77529  0.09385  0.07775  1
