CIF file written using JARVIS-Tools package.
data_Ba2LiHg
_symmetry_space_group_name_H-M  'Fm-3m'
_cell_length_a       14.5597
_cell_length_b       10.2954
_cell_length_c       5.94368
_cell_angle_alpha    29.9985
_cell_angle_beta     35.2635
_cell_angle_gamma    19.4696

_symmetry_Int_Tables_number  225
_chemical_formula_structural  Ba2LiHg
_chemical_formula_sum  Ba2LiHg
_cell_volume  148.47206251901625
_cell_formula_units_Z  1
loop_
  _symmetry_equiv_pos_site_id
 _symmetry_equiv_pos_as_xyz
 1  'x, y, z'
loop_
 _atom_site_type_symbol
 _atom_site_label
 _atom_site_symmetry_multiplicity
 _atom_site_fract_x
 _atom_site_fract_y
 _atom_site_fract_z
 _atom_site_fract_occupancy
 Ba  Ba1  1  0.74999  0.00001  0.99999  1
 Ba  Ba2  1  0.25001  0.99999  0.00001  1
 Hg  Hg1  1  0.50000  -0.00000  0.00000  1
 Li  Li1  1  0.00000  0.00000  0.00000  1
