CIF file written using JARVIS-Tools package.
data_ZnCr2Se4
_symmetry_space_group_name_H-M  'Fd-3m'
_cell_length_a       7.4687
_cell_length_b       7.46871
_cell_length_c       7.46871
_cell_angle_alpha    60
_cell_angle_beta     60
_cell_angle_gamma    60

_symmetry_Int_Tables_number  227
_chemical_formula_structural  ZnCr2Se4
_chemical_formula_sum  Zn2Cr4Se8
_cell_volume  294.5925925439835
_cell_formula_units_Z  2
loop_
  _symmetry_equiv_pos_site_id
 _symmetry_equiv_pos_as_xyz
 1  'x, y, z'
loop_
 _atom_site_type_symbol
 _atom_site_label
 _atom_site_symmetry_multiplicity
 _atom_site_fract_x
 _atom_site_fract_y
 _atom_site_fract_z
 _atom_site_fract_occupancy
 Cr  Cr1  1  0.50000  0.00000  0.50000  1
 Cr  Cr2  1  0.00000  0.50000  0.50000  1
 Cr  Cr3  1  0.50000  0.50000  0.50000  1
 Cr  Cr4  1  0.50000  0.50000  0.00000  1
 Se  Se1  1  0.26011  0.26011  0.26011  1
 Se  Se2  1  0.73989  0.73989  0.28034  1
 Se  Se3  1  0.28034  0.73989  0.73989  1
 Se  Se4  1  0.73989  0.28034  0.73989  1
 Se  Se5  1  0.71966  0.26011  0.26011  1
 Se  Se6  1  0.26011  0.71966  0.26011  1
 Se  Se7  1  0.26011  0.26011  0.71966  1
 Se  Se8  1  0.73989  0.73989  0.73989  1
 Zn  Zn1  1  0.12500  0.12500  0.12500  1
 Zn  Zn2  1  0.87500  0.87500  0.87500  1
