CIF file written using JARVIS-Tools package.
data_Na3FeBAsO7
_symmetry_space_group_name_H-M  'P2_1/m'
_cell_length_a       5.26667
_cell_length_b       6.80434
_cell_length_c       9.06429
_cell_angle_alpha    90
_cell_angle_beta     90.9256
_cell_angle_gamma    90

_symmetry_Int_Tables_number  11
_chemical_formula_structural  Na3FeBAsO7
_chemical_formula_sum  Na6Fe2B2As2O4
_cell_volume  324.78719758182785
_cell_formula_units_Z  2
loop_
  _symmetry_equiv_pos_site_id
 _symmetry_equiv_pos_as_xyz
 1  'x, y, z'
loop_
 _atom_site_type_symbol
 _atom_site_label
 _atom_site_symmetry_multiplicity
 _atom_site_fract_x
 _atom_site_fract_y
 _atom_site_fract_z
 _atom_site_fract_occupancy
 As  As1  1  0.71030  0.25000  0.57655  1
 As  As2  1  0.28970  0.75000  0.42345  1
 B  B1  1  0.73165  0.75000  0.93940  1
 B  B2  1  0.26835  0.25000  0.06060  1
 Fe  Fe1  1  0.77471  0.75000  0.66957  1
 Fe  Fe2  1  0.22529  0.25000  0.33043  1
 Na  Na1  1  0.24282  0.75000  0.07567  1
 Na  Na2  1  0.24462  0.99790  0.75646  1
 Na  Na3  1  0.24462  0.50210  0.75646  1
 Na  Na4  1  0.75538  0.49790  0.24354  1
 Na  Na5  1  0.75538  0.00210  0.24354  1
 Na  Na6  1  0.75718  0.25000  0.92433  1
 O  O1  1  0.21545  0.55313  0.31185  1
 O  O2  1  0.96855  0.75000  0.87205  1
 O  O3  1  0.03145  0.25000  0.12795  1
 O  O4  1  0.46870  0.25000  0.16620  1
 O  O5  1  0.21545  0.94687  0.31185  1
 O  O6  1  0.69496  0.75000  0.08595  1
 O  O7  1  0.53130  0.75000  0.83380  1
 O  O8  1  0.13491  0.75000  0.58772  1
 O  O9  1  0.38602  0.25000  0.53645  1
 O  O10  1  0.78455  0.44687  0.68815  1
 O  O11  1  0.78455  0.05313  0.68815  1
 O  O12  1  0.61398  0.75000  0.46355  1
 O  O13  1  0.86509  0.25000  0.41228  1
 O  O14  1  0.30504  0.25000  0.91405  1
