CIF file written using JARVIS-Tools package.
data_SrZnCl4
_symmetry_space_group_name_H-M  'I4_1/a'
_cell_length_a       6.51179
_cell_length_b       6.51179
_cell_length_c       8.53363
_cell_angle_alpha    112.429
_cell_angle_beta     112.429
_cell_angle_gamma    89.9999

_symmetry_Int_Tables_number  88
_chemical_formula_structural  SrZnCl4
_chemical_formula_sum  Sr2Zn2Cl8
_cell_volume  304.659359575275
_cell_formula_units_Z  2
loop_
  _symmetry_equiv_pos_site_id
 _symmetry_equiv_pos_as_xyz
 1  'x, y, z'
loop_
 _atom_site_type_symbol
 _atom_site_label
 _atom_site_symmetry_multiplicity
 _atom_site_fract_x
 _atom_site_fract_y
 _atom_site_fract_z
 _atom_site_fract_occupancy
 Cl  Cl1  1  0.71684  0.36486  0.91469  1
 Cl  Cl2  1  0.86486  0.69785  0.41469  1
 Cl  Cl3  1  0.28316  0.63514  0.08531  1
 Cl  Cl4  1  0.45017  0.78316  0.58531  1
 Cl  Cl5  1  0.54983  0.21684  0.41469  1
 Cl  Cl6  1  0.80215  0.95017  0.08531  1
 Cl  Cl7  1  0.13514  0.30215  0.58531  1
 Cl  Cl8  1  0.19785  0.04983  0.91469  1
 Sr  Sr1  1  0.87500  0.62500  0.75000  1
 Sr  Sr2  1  0.12500  0.37500  0.25000  1
 Zn  Zn1  1  0.62500  0.87500  0.25000  1
 Zn  Zn2  1  0.37500  0.12500  0.75000  1
