CIF file written using JARVIS-Tools package.
data_Ba3CrS5
_symmetry_space_group_name_H-M  'P6_3/mcm'
_cell_length_a       9.2133
_cell_length_b       9.2133
_cell_length_c       6.13782
_cell_angle_alpha    90
_cell_angle_beta     90
_cell_angle_gamma    120

_symmetry_Int_Tables_number  193
_chemical_formula_structural  Ba3CrS5
_chemical_formula_sum  Ba6Cr2S0
_cell_volume  451.2062751046848
_cell_formula_units_Z  2
loop_
  _symmetry_equiv_pos_site_id
 _symmetry_equiv_pos_as_xyz
 1  'x, y, z'
loop_
 _atom_site_type_symbol
 _atom_site_label
 _atom_site_symmetry_multiplicity
 _atom_site_fract_x
 _atom_site_fract_y
 _atom_site_fract_z
 _atom_site_fract_occupancy
 Ba  Ba1  1  -0.00000  0.38219  0.66322  1
 Ba  Ba2  1  0.38219  0.38219  0.16322  1
 Ba  Ba3  1  0.61781  0.00000  0.16322  1
 Ba  Ba4  1  0.38219  -0.00000  0.66322  1
 Ba  Ba5  1  0.61781  0.61781  0.66322  1
 Ba  Ba6  1  0.00000  0.61781  0.16322  1
 Cr  Cr1  1  0.00000  0.00000  0.41321  1
 Cr  Cr2  1  0.00000  0.00000  0.91321  1
 S  S1  1  0.66667  0.33333  0.91322  1
 S  S2  1  -0.00000  0.21113  0.16324  1
 S  S3  1  0.78887  0.78887  0.16324  1
 S  S4  1  0.78887  0.00000  0.66324  1
 S  S5  1  0.66667  0.33333  0.41322  1
 S  S6  1  0.21113  -0.00000  0.16324  1
 S  S7  1  0.33333  0.66667  0.91322  1
 S  S8  1  0.21113  0.21113  0.66324  1
 S  S9  1  0.00000  0.78887  0.66324  1
 S  S10  1  0.33333  0.66667  0.41322  1
