CIF file written using JARVIS-Tools package.
data_ZrTlCuS3
_symmetry_space_group_name_H-M  'Cmcm'
_cell_length_a       3.73586
_cell_length_b       7.29213
_cell_length_c       9.81415
_cell_angle_alpha    90
_cell_angle_beta     90
_cell_angle_gamma    104.842

_symmetry_Int_Tables_number  63
_chemical_formula_structural  ZrTlCuS3
_chemical_formula_sum  Zr2Tl2Cu2S6
_cell_volume  258.4402460936033
_cell_formula_units_Z  2
loop_
  _symmetry_equiv_pos_site_id
 _symmetry_equiv_pos_as_xyz
 1  'x, y, z'
loop_
 _atom_site_type_symbol
 _atom_site_label
 _atom_site_symmetry_multiplicity
 _atom_site_fract_x
 _atom_site_fract_y
 _atom_site_fract_z
 _atom_site_fract_occupancy
 Cu  Cu1  1  0.46041  0.92083  0.75000  1
 Cu  Cu2  1  0.53959  0.07917  0.25000  1
 S  S1  1  0.37613  0.75225  0.54909  1
 S  S2  1  0.62387  0.24775  0.45091  1
 S  S3  1  0.62387  0.24775  0.04909  1
 S  S4  1  0.06169  0.12337  0.75000  1
 S  S5  1  0.93831  0.87663  0.25000  1
 S  S6  1  0.37613  0.75225  0.95091  1
 Tl  Tl1  1  0.25591  0.51182  0.25000  1
 Tl  Tl2  1  0.74409  0.48818  0.75000  1
 Zr  Zr1  1  0.00000  0.00000  0.50000  1
 Zr  Zr2  1  0.00000  0.00000  0.00000  1
