CIF file written using JARVIS-Tools package.
data_VO2
_symmetry_space_group_name_H-M  'P4_2/mnm'
_cell_length_a       5.39319
_cell_length_b       5.39319
_cell_length_c       5.69999
_cell_angle_alpha    58.0997
_cell_angle_beta     58.0997
_cell_angle_gamma    73.7806

_symmetry_Int_Tables_number  136
_chemical_formula_structural  VO2
_chemical_formula_sum  V4O8
_cell_volume  119.49480825322874
_cell_formula_units_Z  4
loop_
  _symmetry_equiv_pos_site_id
 _symmetry_equiv_pos_as_xyz
 1  'x, y, z'
loop_
 _atom_site_type_symbol
 _atom_site_label
 _atom_site_symmetry_multiplicity
 _atom_site_fract_x
 _atom_site_fract_y
 _atom_site_fract_z
 _atom_site_fract_occupancy
 O  O1  1  0.32540  0.32540  0.42461  1
 O  O2  1  0.42460  0.82541  0.37500  1
 O  O3  1  0.32540  0.32540  0.92459  1
 O  O4  1  0.82541  0.42460  0.37500  1
 O  O5  1  0.42459  0.82540  0.87500  1
 O  O6  1  0.82540  0.42459  0.87500  1
 O  O7  1  0.92460  0.92460  0.32541  1
 O  O8  1  0.92460  0.92460  0.82539  1
 V  V1  1  0.12500  0.12500  0.87500  1
 V  V2  1  0.12500  0.12500  0.37500  1
 V  V3  1  0.62500  0.62500  0.12500  1
 V  V4  1  0.62500  0.62500  0.62500  1
