CIF file written using JARVIS-Tools package.
data_ZrSc2Tl
_symmetry_space_group_name_H-M  'Immm'
_cell_length_a       11.9403
_cell_length_b       6.72366
_cell_length_c       6.72366
_cell_angle_alpha    26.8949
_cell_angle_beta     27.3856
_cell_angle_gamma    27.3856

_symmetry_Int_Tables_number  71
_chemical_formula_structural  ZrSc2Tl
_chemical_formula_sum  ZrSc2Tl
_cell_volume  99.63601797111124
_cell_formula_units_Z  1
loop_
  _symmetry_equiv_pos_site_id
 _symmetry_equiv_pos_as_xyz
 1  'x, y, z'
loop_
 _atom_site_type_symbol
 _atom_site_label
 _atom_site_symmetry_multiplicity
 _atom_site_fract_x
 _atom_site_fract_y
 _atom_site_fract_z
 _atom_site_fract_occupancy
 Sc  Sc1  1  0.74147  -0.00000  0.00000  1
 Sc  Sc2  1  0.25853  0.00000  -0.00000  1
 Tl  Tl1  1  0.50000  0.00000  0.00000  1
 Zr  Zr1  1  0.00000  0.00000  0.00000  1
