CIF file written using JARVIS-Tools package.
data_ThSe2
_symmetry_space_group_name_H-M  'Pnma'
_cell_length_a       4.43163
_cell_length_b       7.64453
_cell_length_c       9.14133
_cell_angle_alpha    90
_cell_angle_beta     90
_cell_angle_gamma    90

_symmetry_Int_Tables_number  62
_chemical_formula_structural  ThSe2
_chemical_formula_sum  Th4Se8
_cell_volume  309.68784024296855
_cell_formula_units_Z  4
loop_
  _symmetry_equiv_pos_site_id
 _symmetry_equiv_pos_as_xyz
 1  'x, y, z'
loop_
 _atom_site_type_symbol
 _atom_site_label
 _atom_site_symmetry_multiplicity
 _atom_site_fract_x
 _atom_site_fract_y
 _atom_site_fract_z
 _atom_site_fract_occupancy
 Se  Se1  1  0.25000  0.02917  0.33568  1
 Se  Se2  1  0.75000  0.97083  0.66432  1
 Se  Se3  1  0.25000  0.52917  0.16432  1
 Se  Se4  1  0.75000  0.47083  0.83568  1
 Se  Se5  1  0.75000  0.35916  0.43016  1
 Se  Se6  1  0.25000  0.64084  0.56984  1
 Se  Se7  1  0.75000  0.85916  0.06984  1
 Se  Se8  1  0.25000  0.14084  0.93016  1
 Th  Th1  1  0.25000  0.25266  0.62304  1
 Th  Th2  1  0.75000  0.74734  0.37696  1
 Th  Th3  1  0.25000  0.75266  0.87696  1
 Th  Th4  1  0.75000  0.24734  0.12304  1
