CIF file written using JARVIS-Tools package.
data_TiCl4
_symmetry_space_group_name_H-M  'P2_1/c'
_cell_length_a       9.58265
_cell_length_b       6.42319
_cell_length_c       9.59519
_cell_angle_alpha    90
_cell_angle_beta     102.06
_cell_angle_gamma    90

_symmetry_Int_Tables_number  14
_chemical_formula_structural  TiCl4
_chemical_formula_sum  Ti4Cl6
_cell_volume  577.561370253452
_cell_formula_units_Z  4
loop_
  _symmetry_equiv_pos_site_id
 _symmetry_equiv_pos_as_xyz
 1  'x, y, z'
loop_
 _atom_site_type_symbol
 _atom_site_label
 _atom_site_symmetry_multiplicity
 _atom_site_fract_x
 _atom_site_fract_y
 _atom_site_fract_z
 _atom_site_fract_occupancy
 Cl  Cl1  1  0.07314  0.08433  0.19445  1
 Cl  Cl2  1  0.43322  0.57684  0.80972  1
 Cl  Cl3  1  0.56678  0.07684  0.69028  1
 Cl  Cl4  1  0.56678  0.42316  0.19028  1
 Cl  Cl5  1  0.43322  0.92316  0.30972  1
 Cl  Cl6  1  0.18839  0.60047  0.07276  1
 Cl  Cl7  1  0.69133  0.91887  0.04987  1
 Cl  Cl8  1  0.81161  0.10047  0.42724  1
 Cl  Cl9  1  0.18839  0.89953  0.57276  1
 Cl  Cl10  1  0.30867  0.41887  0.45013  1
 Cl  Cl11  1  0.92686  0.58433  0.30555  1
 Cl  Cl12  1  0.92686  0.91567  0.80555  1
 Cl  Cl13  1  0.07314  0.41567  0.69445  1
 Cl  Cl14  1  0.30867  0.08113  0.95013  1
 Cl  Cl15  1  0.69133  0.58113  0.54987  1
 Cl  Cl16  1  0.81161  0.39953  0.92724  1
 Ti  Ti1  1  0.25018  0.92153  0.13058  1
 Ti  Ti2  1  0.74982  0.42153  0.36942  1
 Ti  Ti3  1  0.74982  0.07847  0.86942  1
 Ti  Ti4  1  0.25018  0.57847  0.63058  1
