CIF file written using JARVIS-Tools package.
data_CaGe
_symmetry_space_group_name_H-M  'Cmcm'
_cell_length_a       4.02102
_cell_length_b       4.53612
_cell_length_c       5.85808
_cell_angle_alpha    112.778
_cell_angle_beta     90
_cell_angle_gamma    90

_symmetry_Int_Tables_number  63
_chemical_formula_structural  CaGe
_chemical_formula_sum  Ca2Ge2
_cell_volume  98.51713078720881
_cell_formula_units_Z  2
loop_
  _symmetry_equiv_pos_site_id
 _symmetry_equiv_pos_as_xyz
 1  'x, y, z'
loop_
 _atom_site_type_symbol
 _atom_site_label
 _atom_site_symmetry_multiplicity
 _atom_site_fract_x
 _atom_site_fract_y
 _atom_site_fract_z
 _atom_site_fract_occupancy
 Ca  Ca1  1  0.75000  0.36373  0.72746  1
 Ca  Ca2  1  0.25000  0.63627  0.27254  1
 Ge  Ge1  1  0.75000  0.07791  0.15582  1
 Ge  Ge2  1  0.25000  0.92209  0.84418  1
