CIF file written using JARVIS-Tools package.
data_LiMnVO4
_symmetry_space_group_name_H-M  'P4_322'
_cell_length_a       5.95612
_cell_length_b       5.95612
_cell_length_c       8.18968
_cell_angle_alpha    90
_cell_angle_beta     90
_cell_angle_gamma    90

_symmetry_Int_Tables_number  95
_chemical_formula_structural  LiMnVO4
_chemical_formula_sum  Li4Mn4V4O6
_cell_volume  290.53163223848736
_cell_formula_units_Z  4
loop_
  _symmetry_equiv_pos_site_id
 _symmetry_equiv_pos_as_xyz
 1  'x, y, z'
loop_
 _atom_site_type_symbol
 _atom_site_label
 _atom_site_symmetry_multiplicity
 _atom_site_fract_x
 _atom_site_fract_y
 _atom_site_fract_z
 _atom_site_fract_occupancy
 Li  Li1  1  0.00000  0.24447  0.00000  1
 Li  Li2  1  0.00000  0.75553  0.50000  1
 Li  Li3  1  0.24447  0.00000  0.25000  1
 Li  Li4  1  0.75553  0.00000  0.75000  1
 Mn  Mn1  1  0.25391  0.25391  0.62500  1
 Mn  Mn2  1  0.25391  0.74609  0.87500  1
 Mn  Mn3  1  0.74609  0.25391  0.37500  1
 Mn  Mn4  1  0.74609  0.74609  0.12500  1
 O  O1  1  0.03061  0.73031  0.24247  1
 O  O2  1  0.26840  0.51336  0.47945  1
 O  O3  1  0.26840  0.48664  0.02055  1
 O  O4  1  0.03061  0.26969  0.25753  1
 O  O5  1  0.26969  0.03061  0.99247  1
 O  O6  1  0.96939  0.26969  0.74247  1
 O  O7  1  0.48664  0.73160  0.27055  1
 O  O8  1  0.26969  0.96939  0.50753  1
 O  O9  1  0.51336  0.26840  0.77055  1
 O  O10  1  0.73031  0.03061  0.00753  1
 O  O11  1  0.73160  0.51336  0.52055  1
 O  O12  1  0.73160  0.48664  0.97945  1
 O  O13  1  0.48664  0.26840  0.22945  1
 O  O14  1  0.73031  0.96939  0.49247  1
 O  O15  1  0.51336  0.73160  0.72945  1
 O  O16  1  0.96939  0.73031  0.75753  1
 V  V1  1  0.22293  0.50000  0.25000  1
 V  V2  1  0.50000  0.22293  0.00000  1
 V  V3  1  0.50000  0.77707  0.50000  1
 V  V4  1  0.77707  0.50000  0.75000  1
