CIF file written using JARVIS-Tools package.
data_Li3FeOF4
_symmetry_space_group_name_H-M  'Cm'
_cell_length_a       3.69935
_cell_length_b       5.17304
_cell_length_c       5.28129
_cell_angle_alpha    85.4052
_cell_angle_beta     110.502
_cell_angle_gamma    110.95

_symmetry_Int_Tables_number  8
_chemical_formula_structural  Li3FeOF4
_chemical_formula_sum  Li3FeOF4
_cell_volume  88.2902055146997
_cell_formula_units_Z  1
loop_
  _symmetry_equiv_pos_site_id
 _symmetry_equiv_pos_as_xyz
 1  'x, y, z'
loop_
 _atom_site_type_symbol
 _atom_site_label
 _atom_site_symmetry_multiplicity
 _atom_site_fract_x
 _atom_site_fract_y
 _atom_site_fract_z
 _atom_site_fract_occupancy
 F  F1  1  0.03423  0.79092  0.34151  1
 F  F2  1  0.27640  0.37240  0.24436  1
 F  F3  1  0.67216  0.60841  0.79989  1
 F  F4  1  0.85003  0.14474  0.61930  1
 Fe  Fe1  1  0.96353  0.99703  0.99402  1
 Li  Li1  1  0.57410  0.77057  0.44161  1
 Li  Li2  1  0.39676  0.24330  0.61419  1
 Li  Li3  1  0.75694  0.42923  0.14863  1
 O  O1  1  0.48072  0.02819  0.99723  1
