CIF file written using JARVIS-Tools package.
data_Li2V2CoO6
_symmetry_space_group_name_H-M  'Cmce'
_cell_length_a       5.02552
_cell_length_b       5.02552
_cell_length_c       10.1159
_cell_angle_alpha    90
_cell_angle_beta     90
_cell_angle_gamma    121.537

_symmetry_Int_Tables_number  64
_chemical_formula_structural  Li2V2CoO6
_chemical_formula_sum  Li4V4Co2O2
_cell_volume  217.75065444638977
_cell_formula_units_Z  2
loop_
  _symmetry_equiv_pos_site_id
 _symmetry_equiv_pos_as_xyz
 1  'x, y, z'
loop_
 _atom_site_type_symbol
 _atom_site_label
 _atom_site_symmetry_multiplicity
 _atom_site_fract_x
 _atom_site_fract_y
 _atom_site_fract_z
 _atom_site_fract_occupancy
 Co  Co1  1  0.00000  0.00000  0.00000  1
 Co  Co2  1  0.50000  0.50000  0.50000  1
 Li  Li1  1  0.17409  0.67409  0.75000  1
 Li  Li2  1  0.32591  0.82591  0.25000  1
 Li  Li3  1  0.67409  0.17409  0.75000  1
 Li  Li4  1  0.82591  0.32591  0.25000  1
 O  O1  1  0.86048  0.49637  0.60681  1
 O  O2  1  -0.00363  0.36048  0.89319  1
 O  O3  1  0.13952  0.50363  0.39319  1
 O  O4  1  0.49637  0.86048  0.60681  1
 O  O5  1  0.00363  0.63952  0.10681  1
 O  O6  1  0.35263  0.35263  0.11324  1
 O  O7  1  0.64737  0.64737  0.88676  1
 O  O8  1  0.50363  0.13952  0.39319  1
 O  O9  1  0.85263  0.85263  0.38676  1
 O  O10  1  0.14737  0.14737  0.61324  1
 O  O11  1  0.36048  -0.00363  0.89319  1
 O  O12  1  0.63952  0.00363  0.10681  1
 V  V1  1  0.84817  0.15183  0.50000  1
 V  V2  1  0.65183  0.34817  0.00000  1
 V  V3  1  0.34817  0.65183  0.00000  1
 V  V4  1  0.15183  0.84817  0.50000  1
