CIF file written using JARVIS-Tools package.
data_Li4Cr3Co3Ni2O16
_symmetry_space_group_name_H-M  'Cm'
_cell_length_a       5.63773
_cell_length_b       5.63782
_cell_length_c       9.28457
_cell_angle_alpha    91.3085
_cell_angle_beta     88.6923
_cell_angle_gamma    119.468

_symmetry_Int_Tables_number  8
_chemical_formula_structural  Li4Cr3Co3Ni2O16
_chemical_formula_sum  Li4Cr3Co3Ni2O6
_cell_volume  256.8387449630187
_cell_formula_units_Z  1
loop_
  _symmetry_equiv_pos_site_id
 _symmetry_equiv_pos_as_xyz
 1  'x, y, z'
loop_
 _atom_site_type_symbol
 _atom_site_label
 _atom_site_symmetry_multiplicity
 _atom_site_fract_x
 _atom_site_fract_y
 _atom_site_fract_z
 _atom_site_fract_occupancy
 Co  Co1  1  0.17019  0.82980  0.21228  1
 Co  Co2  1  0.83444  0.65408  0.71508  1
 Co  Co3  1  0.34589  0.16553  0.71508  1
 Cr  Cr1  1  0.83364  0.16633  0.70702  1
 Cr  Cr2  1  0.16612  0.34735  0.21076  1
 Cr  Cr3  1  0.65264  0.83387  0.21076  1
 Li  Li1  1  0.33068  0.66930  0.89156  1
 Li  Li2  1  0.01229  0.98766  0.49587  1
 Li  Li3  1  0.00878  0.99119  0.99649  1
 Li  Li4  1  0.65886  0.34113  0.39811  1
 Ni  Ni1  1  0.33187  0.66811  0.49065  1
 Ni  Ni2  1  0.66538  0.33460  0.98472  1
 O  O1  1  0.67829  0.83602  0.60750  1
 O  O2  1  0.16394  0.32167  0.60750  1
 O  O3  1  0.51959  0.48039  0.83566  1
 O  O4  1  0.33354  0.66644  0.09644  1
 O  O5  1  -0.00420  0.00419  0.30811  1
 O  O6  1  0.00359  0.99638  0.80998  1
 O  O7  1  0.47401  0.52598  0.34119  1
 O  O8  1  0.32884  0.16782  0.10334  1
 O  O9  1  0.16734  0.83263  0.60431  1
 O  O10  1  0.52240  0.04096  0.84108  1
 O  O11  1  0.95902  0.47758  0.84108  1
 O  O12  1  0.66992  0.33005  0.60271  1
 O  O13  1  0.02993  0.52505  0.33701  1
 O  O14  1  0.83559  0.16439  0.10320  1
 O  O15  1  0.47494  0.97006  0.33701  1
 O  O16  1  0.83216  0.67114  0.10334  1
