CIF file written using JARVIS-Tools package.
data_CaIn2Te4
_symmetry_space_group_name_H-M  'I422'
_cell_length_a       6.7963
_cell_length_b       6.79631
_cell_length_c       6.79629
_cell_angle_alpha    105.889
_cell_angle_beta     105.889
_cell_angle_gamma    116.901

_symmetry_Int_Tables_number  97
_chemical_formula_structural  CaIn2Te4
_chemical_formula_sum  CaIn2Te4
_cell_volume  238.57008013439835
_cell_formula_units_Z  1
loop_
  _symmetry_equiv_pos_site_id
 _symmetry_equiv_pos_as_xyz
 1  'x, y, z'
loop_
 _atom_site_type_symbol
 _atom_site_label
 _atom_site_symmetry_multiplicity
 _atom_site_fract_x
 _atom_site_fract_y
 _atom_site_fract_z
 _atom_site_fract_occupancy
 Ca  Ca1  1  0.75000  0.75000  0.00000  1
 In  In1  1  0.25000  0.75000  0.50000  1
 In  In2  1  0.75000  0.25000  0.50000  1
 Te  Te1  1  0.30808  0.80808  0.11617  1
 Te  Te2  1  0.19192  0.30808  0.50000  1
 Te  Te3  1  0.80808  0.69192  0.50000  1
 Te  Te4  1  0.69192  0.19192  0.88383  1
