CIF file written using JARVIS-Tools package.
data_Ba2YTi3O8
_symmetry_space_group_name_H-M  'P4/mmm'
_cell_length_a       3.99043
_cell_length_b       3.99043
_cell_length_c       11.4854
_cell_angle_alpha    90
_cell_angle_beta     90
_cell_angle_gamma    90

_symmetry_Int_Tables_number  123
_chemical_formula_structural  Ba2YTi3O8
_chemical_formula_sum  Ba2YTi3O8
_cell_volume  182.88828311616126
_cell_formula_units_Z  1
loop_
  _symmetry_equiv_pos_site_id
 _symmetry_equiv_pos_as_xyz
 1  'x, y, z'
loop_
 _atom_site_type_symbol
 _atom_site_label
 _atom_site_symmetry_multiplicity
 _atom_site_fract_x
 _atom_site_fract_y
 _atom_site_fract_z
 _atom_site_fract_occupancy
 Ba  Ba1  1  0.50000  0.50000  0.17118  1
 Ba  Ba2  1  0.50000  0.50000  0.82882  1
 O  O1  1  0.00000  0.50000  0.37254  1
 O  O2  1  0.50000  0.00000  0.37254  1
 O  O3  1  0.50000  0.00000  -0.00000  1
 O  O4  1  0.00000  0.00000  0.18279  1
 O  O5  1  0.00000  0.50000  0.62746  1
 O  O6  1  0.50000  0.00000  0.62746  1
 O  O7  1  0.00000  0.00000  0.81721  1
 O  O8  1  0.00000  0.50000  -0.00000  1
 Ti  Ti1  1  0.00000  0.00000  0.35359  1
 Ti  Ti2  1  0.00000  0.00000  0.00000  1
 Ti  Ti3  1  0.00000  0.00000  0.64641  1
 Y  Y1  1  0.50000  0.50000  0.50000  1
