CIF file written using JARVIS-Tools package.
data_BaBr2
_symmetry_space_group_name_H-M  'Pnma'
_cell_length_a       4.95969
_cell_length_b       8.27482
_cell_length_c       9.99062
_cell_angle_alpha    90
_cell_angle_beta     90
_cell_angle_gamma    90

_symmetry_Int_Tables_number  62
_chemical_formula_structural  BaBr2
_chemical_formula_sum  Ba4Br8
_cell_volume  410.0200039316289
_cell_formula_units_Z  4
loop_
  _symmetry_equiv_pos_site_id
 _symmetry_equiv_pos_as_xyz
 1  'x, y, z'
loop_
 _atom_site_type_symbol
 _atom_site_label
 _atom_site_symmetry_multiplicity
 _atom_site_fract_x
 _atom_site_fract_y
 _atom_site_fract_z
 _atom_site_fract_occupancy
 Ba  Ba1  1  0.25000  0.74811  0.61930  1
 Ba  Ba2  1  0.75000  0.25189  0.38070  1
 Ba  Ba3  1  0.25000  0.24811  0.88070  1
 Ba  Ba4  1  0.75000  0.75189  0.11930  1
 Br  Br1  1  0.25000  0.52921  0.32941  1
 Br  Br2  1  0.75000  0.47079  0.67059  1
 Br  Br3  1  0.25000  0.02921  0.17059  1
 Br  Br4  1  0.75000  0.97079  0.82941  1
 Br  Br5  1  0.75000  0.85626  0.43046  1
 Br  Br6  1  0.25000  0.14374  0.56954  1
 Br  Br7  1  0.75000  0.35626  0.06954  1
 Br  Br8  1  0.25000  0.64374  0.93046  1
