CIF file written using JARVIS-Tools package.
data_HgC2O4
_symmetry_space_group_name_H-M  'P2_1/c'
_cell_length_a       5.11045
_cell_length_b       5.27774
_cell_length_c       6.45757
_cell_angle_alpha    90
_cell_angle_beta     108.124
_cell_angle_gamma    90

_symmetry_Int_Tables_number  14
_chemical_formula_structural  HgC2O4
_chemical_formula_sum  Hg2C4O8
_cell_volume  165.52991008212044
_cell_formula_units_Z  2
loop_
  _symmetry_equiv_pos_site_id
 _symmetry_equiv_pos_as_xyz
 1  'x, y, z'
loop_
 _atom_site_type_symbol
 _atom_site_label
 _atom_site_symmetry_multiplicity
 _atom_site_fract_x
 _atom_site_fract_y
 _atom_site_fract_z
 _atom_site_fract_occupancy
 C  C1  1  0.94875  0.87133  0.28208  1
 C  C2  1  0.05125  0.37133  0.71792  1
 C  C3  1  0.94875  0.11410  0.78208  1
 C  C4  1  0.05125  0.61410  0.21792  1
 Hg  Hg1  1  0.50000  0.24271  0.25000  1
 Hg  Hg2  1  0.50000  0.74271  0.75000  1
 O  O1  1  0.89216  0.51351  0.58365  1
 O  O2  1  0.10784  0.01351  0.41635  1
 O  O3  1  0.10783  0.97192  0.91635  1
 O  O4  1  0.89217  0.47192  0.08365  1
 O  O5  1  0.69070  0.07395  0.68083  1
 O  O6  1  0.30930  0.57395  0.31917  1
 O  O7  1  0.30930  0.41148  0.81918  1
 O  O8  1  0.69070  0.91148  0.18082  1
