CIF file written using JARVIS-Tools package.
data_TlAuO2
_symmetry_space_group_name_H-M  'R-3m'
_cell_length_a       3.51433
_cell_length_b       3.51433
_cell_length_c       6.62799
_cell_angle_alpha    74.6264
_cell_angle_beta     74.6265
_cell_angle_gamma    60

_symmetry_Int_Tables_number  166
_chemical_formula_structural  TlAuO2
_chemical_formula_sum  TlAuO2
_cell_volume  67.48847346603293
_cell_formula_units_Z  1
loop_
  _symmetry_equiv_pos_site_id
 _symmetry_equiv_pos_as_xyz
 1  'x, y, z'
loop_
 _atom_site_type_symbol
 _atom_site_label
 _atom_site_symmetry_multiplicity
 _atom_site_fract_x
 _atom_site_fract_y
 _atom_site_fract_z
 _atom_site_fract_occupancy
 Au  Au1  1  0.00000  0.00000  0.00000  1
 O  O1  1  0.89307  0.89307  0.32078  1
 O  O2  1  0.10693  0.10693  0.67922  1
 Tl  Tl1  1  0.50000  0.50000  0.50000  1
