CIF file written using JARVIS-Tools package.
data_K4CdCl6
_symmetry_space_group_name_H-M  'R-3c'
_cell_length_a       8.53458
_cell_length_b       8.53458
_cell_length_c       8.53458
_cell_angle_alpha    89.6659
_cell_angle_beta     89.6659
_cell_angle_gamma    89.666

_symmetry_Int_Tables_number  167
_chemical_formula_structural  K4CdCl6
_chemical_formula_sum  K8Cd2Cl2
_cell_volume  621.6189566532912
_cell_formula_units_Z  2
loop_
  _symmetry_equiv_pos_site_id
 _symmetry_equiv_pos_as_xyz
 1  'x, y, z'
loop_
 _atom_site_type_symbol
 _atom_site_label
 _atom_site_symmetry_multiplicity
 _atom_site_fract_x
 _atom_site_fract_y
 _atom_site_fract_z
 _atom_site_fract_occupancy
 Cd  Cd1  1  0.50000  0.50000  0.50000  1
 Cd  Cd2  1  0.00000  0.00000  0.00000  1
 Cl  Cl1  1  0.94223  0.07071  0.29879  1
 Cl  Cl2  1  0.44223  0.79879  0.57071  1
 Cl  Cl3  1  0.79879  0.57071  0.44223  1
 Cl  Cl4  1  0.70121  0.05777  0.92929  1
 Cl  Cl5  1  0.05777  0.92929  0.70121  1
 Cl  Cl6  1  0.92929  0.70121  0.05777  1
 Cl  Cl7  1  0.42929  0.55777  0.20121  1
 Cl  Cl8  1  0.55777  0.20121  0.42929  1
 Cl  Cl9  1  0.20121  0.42929  0.55777  1
 Cl  Cl10  1  0.07071  0.29879  0.94223  1
 Cl  Cl11  1  0.29879  0.94223  0.07071  1
 Cl  Cl12  1  0.57071  0.44223  0.79879  1
 K  K1  1  0.25000  0.25000  0.25000  1
 K  K2  1  0.75000  0.75000  0.75000  1
 K  K3  1  0.12946  0.75000  0.37054  1
 K  K4  1  0.75000  0.37054  0.12946  1
 K  K5  1  0.37054  0.12946  0.75000  1
 K  K6  1  0.87054  0.25000  0.62946  1
 K  K7  1  0.25000  0.62946  0.87054  1
 K  K8  1  0.62946  0.87054  0.25000  1
