CIF file written using JARVIS-Tools package.
data_SNF
_symmetry_space_group_name_H-M  'P-42_1c'
_cell_length_a       9.14173
_cell_length_b       9.14173
_cell_length_c       4.1654
_cell_angle_alpha    90
_cell_angle_beta     90
_cell_angle_gamma    90

_symmetry_Int_Tables_number  114
_chemical_formula_structural  SNF
_chemical_formula_sum  S8N8F8
_cell_volume  348.106944175771
_cell_formula_units_Z  8
loop_
  _symmetry_equiv_pos_site_id
 _symmetry_equiv_pos_as_xyz
 1  'x, y, z'
loop_
 _atom_site_type_symbol
 _atom_site_label
 _atom_site_symmetry_multiplicity
 _atom_site_fract_x
 _atom_site_fract_y
 _atom_site_fract_z
 _atom_site_fract_occupancy
 F  F1  1  0.16842  0.51819  0.70483  1
 F  F2  1  0.51819  0.83158  0.29517  1
 F  F3  1  0.48181  0.16842  0.29517  1
 F  F4  1  0.83158  0.48181  0.70483  1
 F  F5  1  0.66842  0.98181  0.79517  1
 F  F6  1  0.01819  0.66842  0.20483  1
 F  F7  1  0.98181  0.33158  0.20483  1
 F  F8  1  0.33158  0.01819  0.79517  1
 N  N1  1  0.63003  0.38355  0.33362  1
 N  N2  1  0.36997  0.61645  0.33362  1
 N  N3  1  0.38355  0.36997  0.66638  1
 N  N4  1  0.86997  0.88355  0.16638  1
 N  N5  1  0.11645  0.86997  0.83362  1
 N  N6  1  0.13003  0.11645  0.16638  1
 N  N7  1  0.61645  0.63003  0.66638  1
 N  N8  1  0.88355  0.13003  0.83362  1
 S  S1  1  0.02619  0.21259  0.91536  1
 S  S2  1  0.78741  0.02619  0.08464  1
 S  S3  1  0.21259  0.97381  0.08464  1
 S  S4  1  0.97381  0.78741  0.91536  1
 S  S5  1  0.52619  0.28741  0.58464  1
 S  S6  1  0.47381  0.71259  0.58464  1
 S  S7  1  0.71259  0.52619  0.41536  1
 S  S8  1  0.28741  0.47381  0.41536  1
