CIF file written using JARVIS-Tools package.
data_ScCuHg2
_symmetry_space_group_name_H-M  'Immm'
_cell_length_a       11.1152
_cell_length_b       11.7702
_cell_length_c       11.7702
_cell_angle_alpha    55.9995
_cell_angle_beta     61.8245
_cell_angle_gamma    61.8245

_symmetry_Int_Tables_number  71
_chemical_formula_structural  ScCuHg2
_chemical_formula_sum  ScCuHg2
_cell_volume  1078.7277834015422
_cell_formula_units_Z  1
loop_
  _symmetry_equiv_pos_site_id
 _symmetry_equiv_pos_as_xyz
 1  'x, y, z'
loop_
 _atom_site_type_symbol
 _atom_site_label
 _atom_site_symmetry_multiplicity
 _atom_site_fract_x
 _atom_site_fract_y
 _atom_site_fract_z
 _atom_site_fract_occupancy
 Cu  Cu1  1  0.50000  0.00000  -0.00000  1
 Hg  Hg1  1  0.73094  -0.00000  -0.00000  1
 Hg  Hg2  1  0.26906  0.00000  0.00000  1
 Sc  Sc1  1  0.00000  0.00000  0.00000  1
