CIF file written using JARVIS-Tools package.
data_BaCO3
_symmetry_space_group_name_H-M  'R-3c'
_cell_length_a       9.18783
_cell_length_b       7.38231
_cell_length_c       7.38231
_cell_angle_alpha    43.4882
_cell_angle_beta     36.5356
_cell_angle_gamma    36.5356

_symmetry_Int_Tables_number  167
_chemical_formula_structural  BaCO3
_chemical_formula_sum  Ba2C2O6
_cell_volume  172.88905161108198
_cell_formula_units_Z  2
loop_
  _symmetry_equiv_pos_site_id
 _symmetry_equiv_pos_as_xyz
 1  'x, y, z'
loop_
 _atom_site_type_symbol
 _atom_site_label
 _atom_site_symmetry_multiplicity
 _atom_site_fract_x
 _atom_site_fract_y
 _atom_site_fract_z
 _atom_site_fract_occupancy
 Ba  Ba1  1  0.25000  0.50000  0.50000  1
 Ba  Ba2  1  0.75000  0.50000  0.50000  1
 C  C1  1  0.00000  0.00000  0.00000  1
 C  C2  1  0.50000  0.00000  0.00000  1
 O  O1  1  -0.00000  0.76257  0.23743  1
 O  O2  1  0.23743  0.00000  0.76257  1
 O  O3  1  0.76257  0.23743  0.00000  1
 O  O4  1  0.26257  0.00000  0.23743  1
 O  O5  1  0.50000  0.23743  0.76257  1
 O  O6  1  0.73743  0.76257  -0.00000  1
