CIF file written using JARVIS-Tools package.
data_CaSnO2
_symmetry_space_group_name_H-M  'P-1'
_cell_length_a       3.49538
_cell_length_b       8.87908
_cell_length_c       10.5421
_cell_angle_alpha    88.2131
_cell_angle_beta     75.3632
_cell_angle_gamma    82.609

_symmetry_Int_Tables_number  2
_chemical_formula_structural  CaSnO2
_chemical_formula_sum  Ca4Sn4O8
_cell_volume  313.9353767574845
_cell_formula_units_Z  4
loop_
  _symmetry_equiv_pos_site_id
 _symmetry_equiv_pos_as_xyz
 1  'x, y, z'
loop_
 _atom_site_type_symbol
 _atom_site_label
 _atom_site_symmetry_multiplicity
 _atom_site_fract_x
 _atom_site_fract_y
 _atom_site_fract_z
 _atom_site_fract_occupancy
 Ca  Ca1  1  0.14745  0.14554  0.06504  1
 Ca  Ca2  1  0.84935  0.88297  0.91447  1
 Ca  Ca3  1  0.02463  0.20693  0.72811  1
 Ca  Ca4  1  -0.02765  0.82157  0.25140  1
 O  O1  1  0.84901  0.67792  0.74795  1
 O  O2  1  0.51134  0.66580  0.27214  1
 O  O3  1  0.48566  0.36271  0.70736  1
 O  O4  1  0.14793  0.35058  0.23156  1
 O  O5  1  0.24392  0.88697  0.04802  1
 O  O6  1  0.73206  0.08504  0.29272  1
 O  O7  1  0.75288  0.14154  0.93149  1
 O  O8  1  0.26487  0.94346  0.68680  1
 Sn  Sn1  1  0.64832  0.48583  0.15188  1
 Sn  Sn2  1  0.12307  0.19389  0.38665  1
 Sn  Sn3  1  0.87385  0.83462  0.59287  1
 Sn  Sn4  1  0.34863  0.54266  0.82762  1
