CIF file written using JARVIS-Tools package.
data_TlSbO3
_symmetry_space_group_name_H-M  'R-3'
_cell_length_a       7.73804
_cell_length_b       7.73804
_cell_length_c       7.73804
_cell_angle_alpha    40.9302
_cell_angle_beta     40.9301
_cell_angle_gamma    40.9302

_symmetry_Int_Tables_number  148
_chemical_formula_structural  TlSbO3
_chemical_formula_sum  Tl2Sb2O6
_cell_volume  179.5072602638465
_cell_formula_units_Z  2
loop_
  _symmetry_equiv_pos_site_id
 _symmetry_equiv_pos_as_xyz
 1  'x, y, z'
loop_
 _atom_site_type_symbol
 _atom_site_label
 _atom_site_symmetry_multiplicity
 _atom_site_fract_x
 _atom_site_fract_y
 _atom_site_fract_z
 _atom_site_fract_occupancy
 O  O1  1  0.82991  0.44727  0.06350  1
 O  O2  1  0.44727  0.06350  0.82991  1
 O  O3  1  0.06350  0.82991  0.44727  1
 O  O4  1  0.17009  0.55273  0.93650  1
 O  O5  1  0.93650  0.17009  0.55273  1
 O  O6  1  0.55273  0.93650  0.17009  1
 Sb  Sb1  1  0.83360  0.83360  0.83360  1
 Sb  Sb2  1  0.16640  0.16640  0.16640  1
 Tl  Tl1  1  0.62463  0.62463  0.62463  1
 Tl  Tl2  1  0.37537  0.37537  0.37537  1
