CIF file written using JARVIS-Tools package.
data_CeOF
_symmetry_space_group_name_H-M  'R-3m'
_cell_length_a       3.9764
_cell_length_b       7.01788
_cell_length_c       3.9764
_cell_angle_alpha    106.458
_cell_angle_beta     60
_cell_angle_gamma    106.457

_symmetry_Int_Tables_number  166
_chemical_formula_structural  CeOF
_chemical_formula_sum  Ce2O2F2
_cell_volume  90.81102322932622
_cell_formula_units_Z  2
loop_
  _symmetry_equiv_pos_site_id
 _symmetry_equiv_pos_as_xyz
 1  'x, y, z'
loop_
 _atom_site_type_symbol
 _atom_site_label
 _atom_site_symmetry_multiplicity
 _atom_site_fract_x
 _atom_site_fract_y
 _atom_site_fract_z
 _atom_site_fract_occupancy
 Ce  Ce1  1  0.24054  0.72162  0.24054  1
 Ce  Ce2  1  0.75946  0.27838  0.75946  1
 F  F1  1  0.36932  0.10796  0.36932  1
 F  F2  1  0.63068  0.89204  0.63068  1
 O  O1  1  0.12167  0.36502  0.12167  1
 O  O2  1  0.87833  0.63498  0.87833  1
