CIF file written using JARVIS-Tools package.
data_ZnCr2O4
_symmetry_space_group_name_H-M  'Imma'
_cell_length_a       5.93406
_cell_length_b       5.93406
_cell_length_c       5.93886
_cell_angle_alpha    59.9732
_cell_angle_beta     59.9732
_cell_angle_gamma    61.2169

_symmetry_Int_Tables_number  74
_chemical_formula_structural  ZnCr2O4
_chemical_formula_sum  Zn2Cr4O8
_cell_volume  149.12430427987323
_cell_formula_units_Z  2
loop_
  _symmetry_equiv_pos_site_id
 _symmetry_equiv_pos_as_xyz
 1  'x, y, z'
loop_
 _atom_site_type_symbol
 _atom_site_label
 _atom_site_symmetry_multiplicity
 _atom_site_fract_x
 _atom_site_fract_y
 _atom_site_fract_z
 _atom_site_fract_occupancy
 Cr  Cr1  1  0.00090  0.00090  0.99910  1
 Cr  Cr2  1  0.24910  0.24910  0.25090  1
 Cr  Cr3  1  0.62500  0.62500  0.12500  1
 Cr  Cr4  1  0.62500  0.62500  0.62500  1
 O  O1  1  0.38430  0.38430  0.37520  1
 O  O2  1  0.40846  0.85833  0.36661  1
 O  O3  1  0.38430  0.38430  0.85621  1
 O  O4  1  0.85833  0.40846  0.36661  1
 O  O5  1  0.39167  0.84154  0.88339  1
 O  O6  1  0.84154  0.39167  0.88339  1
 O  O7  1  0.86570  0.86570  0.39379  1
 O  O8  1  0.86570  0.86570  0.87480  1
 Zn  Zn1  1  0.12500  0.62500  0.62500  1
 Zn  Zn2  1  0.62500  0.12500  0.62500  1
