CIF file written using JARVIS-Tools package.
data_Na2MgC2O6
_symmetry_space_group_name_H-M  'R-3'
_cell_length_a       6.13333
_cell_length_b       6.13334
_cell_length_c       6.13334
_cell_angle_alpha    47.7361
_cell_angle_beta     47.7361
_cell_angle_gamma    47.7361

_symmetry_Int_Tables_number  148
_chemical_formula_structural  Na2MgC2O6
_chemical_formula_sum  Na2MgC2O6
_cell_volume  115.69637989003273
_cell_formula_units_Z  1
loop_
  _symmetry_equiv_pos_site_id
 _symmetry_equiv_pos_as_xyz
 1  'x, y, z'
loop_
 _atom_site_type_symbol
 _atom_site_label
 _atom_site_symmetry_multiplicity
 _atom_site_fract_x
 _atom_site_fract_y
 _atom_site_fract_z
 _atom_site_fract_occupancy
 C  C1  1  0.59052  0.59052  0.59052  1
 C  C2  1  0.40948  0.40948  0.40948  1
 Mg  Mg1  1  0.00000  0.00000  0.00000  1
 Na  Na1  1  0.19780  0.19780  0.19780  1
 Na  Na2  1  0.80220  0.80220  0.80220  1
 O  O1  1  0.19326  0.70060  0.33860  1
 O  O2  1  0.70060  0.33860  0.19326  1
 O  O3  1  0.33860  0.19326  0.70060  1
 O  O4  1  0.80674  0.29940  0.66140  1
 O  O5  1  0.66140  0.80674  0.29940  1
 O  O6  1  0.29940  0.66140  0.80674  1
