CIF file written using JARVIS-Tools package.
data_Li2HgBi
_symmetry_space_group_name_H-M  'P-1'
_cell_length_a       11.8895
_cell_length_b       8.33752
_cell_length_c       8.14508
_cell_angle_alpha    33.6316
_cell_angle_beta     19.8197
_cell_angle_gamma    19.9378

_symmetry_Int_Tables_number  2
_chemical_formula_structural  Li2HgBi
_chemical_formula_sum  Li2HgBi
_cell_volume  83.47618485695753
_cell_formula_units_Z  1
loop_
  _symmetry_equiv_pos_site_id
 _symmetry_equiv_pos_as_xyz
 1  'x, y, z'
loop_
 _atom_site_type_symbol
 _atom_site_label
 _atom_site_symmetry_multiplicity
 _atom_site_fract_x
 _atom_site_fract_y
 _atom_site_fract_z
 _atom_site_fract_occupancy
 Bi  Bi1  1  0.50000  0.00000  0.00000  1
 Hg  Hg1  1  0.00000  0.00000  0.00000  1
 Li  Li1  1  0.75489  0.99683  0.99681  1
 Li  Li2  1  0.24511  0.00317  0.00319  1
