CIF file written using JARVIS-Tools package.
data_SrSn2As2
_symmetry_space_group_name_H-M  'R-3m'
_cell_length_a       9.39283
_cell_length_b       9.39283
_cell_length_c       9.39284
_cell_angle_alpha    26.2924
_cell_angle_beta     26.2924
_cell_angle_gamma    26.2924

_symmetry_Int_Tables_number  166
_chemical_formula_structural  SrSn2As2
_chemical_formula_sum  SrSn2As2
_cell_volume  143.2788964542231
_cell_formula_units_Z  1
loop_
  _symmetry_equiv_pos_site_id
 _symmetry_equiv_pos_as_xyz
 1  'x, y, z'
loop_
 _atom_site_type_symbol
 _atom_site_label
 _atom_site_symmetry_multiplicity
 _atom_site_fract_x
 _atom_site_fract_y
 _atom_site_fract_z
 _atom_site_fract_occupancy
 As  As1  1  0.59473  0.59473  0.59473  1
 As  As2  1  0.40527  0.40527  0.40527  1
 Sn  Sn1  1  0.21042  0.21042  0.21042  1
 Sn  Sn2  1  0.78958  0.78958  0.78958  1
 Sr  Sr1  1  0.00000  0.00000  0.00000  1
