CIF file written using JARVIS-Tools package.
data_VOF3
_symmetry_space_group_name_H-M  'Aem2'
_cell_length_a       4.93408
_cell_length_b       5.54549
_cell_length_c       5.55928
_cell_angle_alpha    90
_cell_angle_beta     124.272
_cell_angle_gamma    90

_symmetry_Int_Tables_number  39
_chemical_formula_structural  VOF3
_chemical_formula_sum  V2O2F6
_cell_volume  125.70118714749283
_cell_formula_units_Z  2
loop_
  _symmetry_equiv_pos_site_id
 _symmetry_equiv_pos_as_xyz
 1  'x, y, z'
loop_
 _atom_site_type_symbol
 _atom_site_label
 _atom_site_symmetry_multiplicity
 _atom_site_fract_x
 _atom_site_fract_y
 _atom_site_fract_z
 _atom_site_fract_occupancy
 F  F1  1  -0.00014  0.00075  0.72235  1
 F  F2  1  0.58395  0.25255  0.76622  1
 F  F3  1  -0.00014  0.99925  0.22235  1
 F  F4  1  0.41607  0.74772  0.68216  1
 F  F5  1  0.58395  0.74745  0.26622  1
 F  F6  1  0.41607  0.25228  0.18216  1
 O  O1  1  0.00011  0.52220  0.77115  1
 O  O2  1  0.00011  0.47780  0.27115  1
 V  V1  1  0.00001  0.27547  0.05812  1
 V  V2  1  0.00001  0.72453  0.55812  1
