CIF file written using JARVIS-Tools package.
data_CIN
_symmetry_space_group_name_H-M  'R3m'
_cell_length_a       4.31779
_cell_length_b       4.31779
_cell_length_c       4.31779
_cell_angle_alpha    100.939
_cell_angle_beta     100.939
_cell_angle_gamma    100.939

_symmetry_Int_Tables_number  160
_chemical_formula_structural  CIN
_chemical_formula_sum  CIN
_cell_volume  75.44068305213624
_cell_formula_units_Z  1
loop_
  _symmetry_equiv_pos_site_id
 _symmetry_equiv_pos_as_xyz
 1  'x, y, z'
loop_
 _atom_site_type_symbol
 _atom_site_label
 _atom_site_symmetry_multiplicity
 _atom_site_fract_x
 _atom_site_fract_y
 _atom_site_fract_z
 _atom_site_fract_occupancy
 C  C1  1  0.34161  0.34161  0.34161  1
 I  I1  1  0.99865  0.99865  0.99865  1
 N  N1  1  0.53973  0.53973  0.53973  1
