CIF file written using JARVIS-Tools package.
data_FeGe
_symmetry_space_group_name_H-M  'C2/m'
_cell_length_a       3.90428
_cell_length_b       4.89486
_cell_length_c       6.26968
_cell_angle_alpha    102.988
_cell_angle_beta     108.141
_cell_angle_gamma    90.0001

_symmetry_Int_Tables_number  12
_chemical_formula_structural  FeGe
_chemical_formula_sum  Fe4Ge4
_cell_volume  110.63321312256842
_cell_formula_units_Z  4
loop_
  _symmetry_equiv_pos_site_id
 _symmetry_equiv_pos_as_xyz
 1  'x, y, z'
loop_
 _atom_site_type_symbol
 _atom_site_label
 _atom_site_symmetry_multiplicity
 _atom_site_fract_x
 _atom_site_fract_y
 _atom_site_fract_z
 _atom_site_fract_occupancy
 Fe  Fe1  1  0.00000  0.00000  0.00000  1
 Fe  Fe2  1  0.00000  0.50000  -0.00000  1
 Fe  Fe3  1  0.79463  0.63867  0.58926  1
 Fe  Fe4  1  0.20537  0.36133  0.41074  1
 Ge  Ge1  1  0.18318  0.84419  0.36636  1
 Ge  Ge2  1  0.81682  0.15581  0.63364  1
 Ge  Ge3  1  0.42975  0.70116  0.85951  1
 Ge  Ge4  1  0.57025  0.29884  0.14049  1
