CIF file written using JARVIS-Tools package.
data_In5AgTe8
_symmetry_space_group_name_H-M  'P-42m'
_cell_length_a       6.29322
_cell_length_b       6.29322
_cell_length_c       12.666
_cell_angle_alpha    90
_cell_angle_beta     90
_cell_angle_gamma    90

_symmetry_Int_Tables_number  111
_chemical_formula_structural  In5AgTe8
_chemical_formula_sum  In5AgTe8
_cell_volume  501.6323970072928
_cell_formula_units_Z  1
loop_
  _symmetry_equiv_pos_site_id
 _symmetry_equiv_pos_as_xyz
 1  'x, y, z'
loop_
 _atom_site_type_symbol
 _atom_site_label
 _atom_site_symmetry_multiplicity
 _atom_site_fract_x
 _atom_site_fract_y
 _atom_site_fract_z
 _atom_site_fract_occupancy
 Ag  Ag1  1  0.00000  0.00000  0.50000  1
 In  In1  1  0.00000  0.50000  0.25699  1
 In  In2  1  0.00000  0.50000  0.74301  1
 In  In3  1  0.50000  0.00000  0.74301  1
 In  In4  1  0.50000  0.50000  0.00000  1
 In  In5  1  0.50000  0.00000  0.25699  1
 Te  Te1  1  0.72538  0.27462  0.39096  1
 Te  Te2  1  0.22067  0.77933  0.88819  1
 Te  Te3  1  0.77933  0.22067  0.88819  1
 Te  Te4  1  0.77933  0.77933  0.11181  1
 Te  Te5  1  0.27462  0.72538  0.39096  1
 Te  Te6  1  0.22067  0.22067  0.11181  1
 Te  Te7  1  0.72538  0.72538  0.60904  1
 Te  Te8  1  0.27462  0.27462  0.60904  1
