CIF file written using JARVIS-Tools package.
data_Er2TeO6
_symmetry_space_group_name_H-M  'P4_2/mnm'
_cell_length_a       4.94067
_cell_length_b       10.0003
_cell_length_c       4.94065
_cell_angle_alpha    90
_cell_angle_beta     90.0006
_cell_angle_gamma    90

_symmetry_Int_Tables_number  136
_chemical_formula_structural  Er2TeO6
_chemical_formula_sum  Er4Te2O2
_cell_volume  244.10900890956728
_cell_formula_units_Z  2
loop_
  _symmetry_equiv_pos_site_id
 _symmetry_equiv_pos_as_xyz
 1  'x, y, z'
loop_
 _atom_site_type_symbol
 _atom_site_label
 _atom_site_symmetry_multiplicity
 _atom_site_fract_x
 _atom_site_fract_y
 _atom_site_fract_z
 _atom_site_fract_occupancy
 Er  Er1  1  -0.00000  0.66549  -0.00000  1
 Er  Er2  1  0.00000  0.33451  0.00000  1
 Er  Er3  1  0.50000  0.83451  0.50000  1
 Er  Er4  1  0.50000  0.16549  0.50000  1
 O  O1  1  0.18431  0.85252  0.18430  1
 O  O2  1  0.18431  0.14748  0.18430  1
 O  O3  1  0.81569  0.85252  0.81570  1
 O  O4  1  0.71971  -0.00000  0.28032  1
 O  O5  1  0.21959  0.50000  0.21980  1
 O  O6  1  0.68421  0.35252  0.31561  1
 O  O7  1  0.31579  0.35252  0.68439  1
 O  O8  1  0.68421  0.64748  0.31561  1
 O  O9  1  0.28029  0.00000  0.71968  1
 O  O10  1  0.78041  0.50000  0.78020  1
 O  O11  1  0.31579  0.64748  0.68439  1
 O  O12  1  0.81569  0.14748  0.81570  1
 Te  Te1  1  0.50000  0.50000  0.50000  1
 Te  Te2  1  0.00000  0.00000  0.00000  1
