CIF file written using JARVIS-Tools package.
data_LiPdPb2
_symmetry_space_group_name_H-M  'R-3m'
_cell_length_a       12.0503
_cell_length_b       8.52452
_cell_length_c       8.52452
_cell_angle_alpha    33.7367
_cell_angle_beta     19.6037
_cell_angle_gamma    19.6037

_symmetry_Int_Tables_number  166
_chemical_formula_structural  LiPdPb2
_chemical_formula_sum  LiPdPb2
_cell_volume  85.59262278524011
_cell_formula_units_Z  1
loop_
  _symmetry_equiv_pos_site_id
 _symmetry_equiv_pos_as_xyz
 1  'x, y, z'
loop_
 _atom_site_type_symbol
 _atom_site_label
 _atom_site_symmetry_multiplicity
 _atom_site_fract_x
 _atom_site_fract_y
 _atom_site_fract_z
 _atom_site_fract_occupancy
 Li  Li1  1  0.00000  0.00000  0.00000  1
 Pb  Pb1  1  0.74968  0.00087  0.00087  1
 Pb  Pb2  1  0.25032  -0.00087  -0.00087  1
 Pd  Pd1  1  0.50000  -0.00000  -0.00000  1
