CIF file written using JARVIS-Tools package.
data_Li2V3FeO8
_symmetry_space_group_name_H-M  'R-3m'
_cell_length_a       5.80269
_cell_length_b       5.80269
_cell_length_c       5.80269
_cell_angle_alpha    59.8575
_cell_angle_beta     59.8575
_cell_angle_gamma    59.8574

_symmetry_Int_Tables_number  166
_chemical_formula_structural  Li2V3FeO8
_chemical_formula_sum  Li2V3FeO8
_cell_volume  137.70999371601275
_cell_formula_units_Z  1
loop_
  _symmetry_equiv_pos_site_id
 _symmetry_equiv_pos_as_xyz
 1  'x, y, z'
loop_
 _atom_site_type_symbol
 _atom_site_label
 _atom_site_symmetry_multiplicity
 _atom_site_fract_x
 _atom_site_fract_y
 _atom_site_fract_z
 _atom_site_fract_occupancy
 Fe  Fe1  1  0.50000  0.50000  0.50000  1
 Li  Li1  1  0.12522  0.12522  0.12522  1
 Li  Li2  1  0.87478  0.87478  0.87478  1
 O  O1  1  0.25988  0.25988  0.25988  1
 O  O2  1  0.26182  0.26182  0.71610  1
 O  O3  1  0.26182  0.71610  0.26182  1
 O  O4  1  0.71610  0.26182  0.26182  1
 O  O5  1  0.28390  0.73818  0.73818  1
 O  O6  1  0.73818  0.28390  0.73818  1
 O  O7  1  0.73818  0.73818  0.28390  1
 O  O8  1  0.74012  0.74012  0.74012  1
 V  V1  1  0.00000  0.50000  0.50000  1
 V  V2  1  0.50000  0.00000  0.50000  1
 V  V3  1  0.50000  0.50000  -0.00000  1
