CIF file written using JARVIS-Tools package.
data_Rb5FeO4
_symmetry_space_group_name_H-M  'Pmmn'
_cell_length_a       6.60057
_cell_length_b       7.80435
_cell_length_c       8.74124
_cell_angle_alpha    90
_cell_angle_beta     90
_cell_angle_gamma    90

_symmetry_Int_Tables_number  59
_chemical_formula_structural  Rb5FeO4
_chemical_formula_sum  Rb0Fe2O8
_cell_volume  450.2884416302163
_cell_formula_units_Z  2
loop_
  _symmetry_equiv_pos_site_id
 _symmetry_equiv_pos_as_xyz
 1  'x, y, z'
loop_
 _atom_site_type_symbol
 _atom_site_label
 _atom_site_symmetry_multiplicity
 _atom_site_fract_x
 _atom_site_fract_y
 _atom_site_fract_z
 _atom_site_fract_occupancy
 Fe  Fe1  1  0.20858  0.00000  0.00000  1
 Fe  Fe2  1  0.79142  0.50000  0.50000  1
 O  O1  1  0.04832  0.00000  0.81401  1
 O  O2  1  0.04832  0.00000  0.18599  1
 O  O3  1  0.95168  0.50000  0.31401  1
 O  O4  1  0.63040  0.29305  0.50000  1
 O  O5  1  0.63040  0.70695  0.50000  1
 O  O6  1  0.95168  0.50000  0.68599  1
 O  O7  1  0.36960  0.20695  0.00000  1
 O  O8  1  0.36960  0.79305  0.00000  1
 Rb  Rb1  1  0.26596  0.73643  0.69000  1
 Rb  Rb2  1  0.86791  0.00000  0.50000  1
 Rb  Rb3  1  0.26596  0.73643  0.31000  1
 Rb  Rb4  1  0.73404  0.23643  0.81000  1
 Rb  Rb5  1  0.73404  0.76357  0.19000  1
 Rb  Rb6  1  0.73404  0.23643  0.19000  1
 Rb  Rb7  1  0.13209  0.50000  0.00000  1
 Rb  Rb8  1  0.73404  0.76357  0.81000  1
 Rb  Rb9  1  0.26596  0.26357  0.69000  1
 Rb  Rb10  1  0.26596  0.26357  0.31000  1
