CIF file written using JARVIS-Tools package.
data_NbBiO4
_symmetry_space_group_name_H-M  'Pnna'
_cell_length_a       5.07301
_cell_length_b       5.78349
_cell_length_c       11.7464
_cell_angle_alpha    90
_cell_angle_beta     90
_cell_angle_gamma    90

_symmetry_Int_Tables_number  52
_chemical_formula_structural  NbBiO4
_chemical_formula_sum  Nb4Bi4O6
_cell_volume  344.6350429699581
_cell_formula_units_Z  4
loop_
  _symmetry_equiv_pos_site_id
 _symmetry_equiv_pos_as_xyz
 1  'x, y, z'
loop_
 _atom_site_type_symbol
 _atom_site_label
 _atom_site_symmetry_multiplicity
 _atom_site_fract_x
 _atom_site_fract_y
 _atom_site_fract_z
 _atom_site_fract_occupancy
 Bi  Bi1  1  0.27524  0.75000  0.00000  1
 Bi  Bi2  1  0.22476  0.75000  0.50000  1
 Bi  Bi3  1  0.72476  0.25000  0.00000  1
 Bi  Bi4  1  0.77524  0.25000  0.50000  1
 Nb  Nb1  1  0.75000  0.84513  0.25000  1
 Nb  Nb2  1  0.75000  0.65487  0.75000  1
 Nb  Nb3  1  0.25000  0.15487  0.75000  1
 Nb  Nb4  1  0.25000  0.34513  0.25000  1
 O  O1  1  0.91687  0.92003  0.40076  1
 O  O2  1  0.91687  0.57997  0.59924  1
 O  O3  1  0.58313  0.92003  0.09924  1
 O  O4  1  0.00383  0.86161  0.80970  1
 O  O5  1  0.08313  0.07997  0.59924  1
 O  O6  1  0.08313  0.42003  0.40076  1
 O  O7  1  0.58313  0.57997  0.90076  1
 O  O8  1  0.99617  0.13839  0.19030  1
 O  O9  1  0.50383  0.13839  0.30970  1
 O  O10  1  0.50383  0.36161  0.69030  1
 O  O11  1  0.41687  0.07997  0.90076  1
 O  O12  1  0.99617  0.36161  0.80970  1
 O  O13  1  0.49617  0.86161  0.69030  1
 O  O14  1  0.49617  0.63839  0.30970  1
 O  O15  1  0.41687  0.42003  0.09924  1
 O  O16  1  0.00383  0.63839  0.19030  1
