CIF file written using JARVIS-Tools package.
data_Li2MnF4
_symmetry_space_group_name_H-M  'Cmcm'
_cell_length_a       2.93319
_cell_length_b       4.96952
_cell_length_c       9.73382
_cell_angle_alpha    90
_cell_angle_beta     90
_cell_angle_gamma    107.165

_symmetry_Int_Tables_number  63
_chemical_formula_structural  Li2MnF4
_chemical_formula_sum  Li4Mn2F8
_cell_volume  135.56599362277888
_cell_formula_units_Z  2
loop_
  _symmetry_equiv_pos_site_id
 _symmetry_equiv_pos_as_xyz
 1  'x, y, z'
loop_
 _atom_site_type_symbol
 _atom_site_label
 _atom_site_symmetry_multiplicity
 _atom_site_fract_x
 _atom_site_fract_y
 _atom_site_fract_z
 _atom_site_fract_occupancy
 F  F1  1  0.00000  0.00000  0.00000  1
 F  F2  1  0.00000  0.00000  0.50000  1
 F  F3  1  0.45822  0.91643  0.25000  1
 F  F4  1  0.27686  0.55371  0.61723  1
 F  F5  1  0.27686  0.55371  0.88277  1
 F  F6  1  0.54178  0.08357  0.75000  1
 F  F7  1  0.72314  0.44629  0.11723  1
 F  F8  1  0.72314  0.44629  0.38277  1
 Li  Li1  1  0.37454  0.74909  0.43811  1
 Li  Li2  1  0.37454  0.74909  0.06189  1
 Li  Li3  1  0.62546  0.25091  0.56189  1
 Li  Li4  1  0.62546  0.25091  0.93811  1
 Mn  Mn1  1  0.11950  0.23900  0.25000  1
 Mn  Mn2  1  0.88050  0.76100  0.75000  1
