CIF file written using JARVIS-Tools package.
data_DyBr2
_symmetry_space_group_name_H-M  'Pbca'
_cell_length_a       6.63558
_cell_length_b       7.60854
_cell_length_c       12.8581
_cell_angle_alpha    90
_cell_angle_beta     90
_cell_angle_gamma    90

_symmetry_Int_Tables_number  61
_chemical_formula_structural  DyBr2
_chemical_formula_sum  Dy8Br6
_cell_volume  649.1649311044032
_cell_formula_units_Z  8
loop_
  _symmetry_equiv_pos_site_id
 _symmetry_equiv_pos_as_xyz
 1  'x, y, z'
loop_
 _atom_site_type_symbol
 _atom_site_label
 _atom_site_symmetry_multiplicity
 _atom_site_fract_x
 _atom_site_fract_y
 _atom_site_fract_z
 _atom_site_fract_occupancy
 Br  Br1  1  0.70293  0.88085  0.79511  1
 Br  Br2  1  0.01954  0.79625  0.04643  1
 Br  Br3  1  0.51954  0.20375  0.45357  1
 Br  Br4  1  0.48046  0.29625  0.95357  1
 Br  Br5  1  0.29707  0.11915  0.20489  1
 Br  Br6  1  0.98046  0.20375  0.95357  1
 Br  Br7  1  0.48046  0.79625  0.54643  1
 Br  Br8  1  0.98046  0.70375  0.54643  1
 Br  Br9  1  0.01954  0.29625  0.45357  1
 Br  Br10  1  0.79707  0.38085  0.20489  1
 Br  Br11  1  0.29707  0.61915  0.29511  1
 Br  Br12  1  0.79707  0.88085  0.29511  1
 Br  Br13  1  0.20293  0.11915  0.70489  1
 Br  Br14  1  0.20293  0.61915  0.79511  1
 Br  Br15  1  0.70293  0.38085  0.70489  1
 Br  Br16  1  0.51954  0.70375  0.04643  1
 Dy  Dy1  1  0.67508  0.54867  0.40370  1
 Dy  Dy2  1  0.17508  0.45133  0.09630  1
 Dy  Dy3  1  0.82492  0.04867  0.59630  1
 Dy  Dy4  1  0.32492  0.95133  0.90370  1
 Dy  Dy5  1  0.32492  0.45133  0.59630  1
 Dy  Dy6  1  0.82492  0.54867  0.90370  1
 Dy  Dy7  1  0.17508  0.95133  0.40370  1
 Dy  Dy8  1  0.67508  0.04867  0.09630  1
