CIF file written using JARVIS-Tools package.
data_Li3FeP2O8
_symmetry_space_group_name_H-M  'P2_1/m'
_cell_length_a       4.70083
_cell_length_b       5.89243
_cell_length_c       10.1071
_cell_angle_alpha    90
_cell_angle_beta     90.3398
_cell_angle_gamma    90

_symmetry_Int_Tables_number  11
_chemical_formula_structural  Li3FeP2O8
_chemical_formula_sum  Li6Fe2P4O6
_cell_volume  279.95401888571337
_cell_formula_units_Z  2
loop_
  _symmetry_equiv_pos_site_id
 _symmetry_equiv_pos_as_xyz
 1  'x, y, z'
loop_
 _atom_site_type_symbol
 _atom_site_label
 _atom_site_symmetry_multiplicity
 _atom_site_fract_x
 _atom_site_fract_y
 _atom_site_fract_z
 _atom_site_fract_occupancy
 Fe  Fe1  1  0.99404  0.25000  0.27898  1
 Fe  Fe2  1  0.00596  0.75000  0.72102  1
 Li  Li1  1  0.00000  0.00000  0.00000  1
 Li  Li2  1  0.00000  0.50000  0.00000  1
 Li  Li3  1  0.48060  0.75000  0.21818  1
 Li  Li4  1  0.50000  0.00000  0.50000  1
 Li  Li5  1  0.50000  0.50000  0.50000  1
 Li  Li6  1  0.51940  0.25000  0.78182  1
 O  O1  1  0.74505  0.25000  0.10635  1
 O  O2  1  0.80135  0.96240  0.33528  1
 O  O3  1  0.80135  0.53760  0.33528  1
 O  O4  1  0.69786  0.75000  0.04444  1
 O  O5  1  0.27693  0.04499  0.17265  1
 O  O6  1  0.25495  0.75000  0.89365  1
 O  O7  1  0.20559  0.25000  0.45276  1
 O  O8  1  0.27693  0.45501  0.17265  1
 O  O9  1  0.79441  0.75000  0.54724  1
 O  O10  1  0.72307  0.54499  0.82735  1
 O  O11  1  0.19865  0.03760  0.66472  1
 O  O12  1  0.19865  0.46240  0.66472  1
 O  O13  1  0.25578  0.75000  0.41121  1
 O  O14  1  0.72307  0.95501  0.82735  1
 O  O15  1  0.74422  0.25000  0.58879  1
 O  O16  1  0.30214  0.25000  0.95556  1
 P  P1  1  0.41656  0.25000  0.09762  1
 P  P2  1  0.93373  0.75000  0.40536  1
 P  P3  1  0.06627  0.25000  0.59464  1
 P  P4  1  0.58344  0.75000  0.90238  1
