CIF file written using JARVIS-Tools package.
data_TeMoS
_symmetry_space_group_name_H-M  'P-3m1'
_cell_length_a       3.36888
_cell_length_b       3.36888
_cell_length_c       36.9433
_cell_angle_alpha    90.0029
_cell_angle_beta     90
_cell_angle_gamma    120

_symmetry_Int_Tables_number  164
_chemical_formula_structural  TeMoS
_chemical_formula_sum  Te4Mo4S4
_cell_volume  363.1092911761103
_cell_formula_units_Z  4
loop_
  _symmetry_equiv_pos_site_id
 _symmetry_equiv_pos_as_xyz
 1  'x, y, z'
loop_
 _atom_site_type_symbol
 _atom_site_label
 _atom_site_symmetry_multiplicity
 _atom_site_fract_x
 _atom_site_fract_y
 _atom_site_fract_z
 _atom_site_fract_occupancy
 Mo  Mo1  1  0.33336  0.66672  0.09516  1
 Mo  Mo2  1  0.33339  0.66679  0.47525  1
 Mo  Mo3  1  0.66661  0.33321  0.27621  1
 Mo  Mo4  1  0.66664  0.33328  0.65630  1
 S  S1  1  0.33333  0.66666  0.69719  1
 S  S2  1  0.66667  0.33334  0.05426  1
 S  S3  1  0.66671  0.33343  0.13610  1
 S  S4  1  0.33329  0.66657  0.61536  1
 Te  Te1  1  0.33329  0.66658  0.32742  1
 Te  Te2  1  0.66671  0.33342  0.42404  1
 Te  Te3  1  0.66674  0.33348  0.52650  1
 Te  Te4  1  0.33326  0.66652  0.22495  1
