CIF file written using JARVIS-Tools package.
data_Li3Fe3CuO8
_symmetry_space_group_name_H-M  'R3m'
_cell_length_a       5.67757
_cell_length_b       5.7654
_cell_length_c       5.67734
_cell_angle_alpha    119.496
_cell_angle_beta     119.999
_cell_angle_gamma    90.0007

_symmetry_Int_Tables_number  160
_chemical_formula_structural  Li3Fe3CuO8
_chemical_formula_sum  Li3Fe3CuO8
_cell_volume  132.400884351555
_cell_formula_units_Z  1
loop_
  _symmetry_equiv_pos_site_id
 _symmetry_equiv_pos_as_xyz
 1  'x, y, z'
loop_
 _atom_site_type_symbol
 _atom_site_label
 _atom_site_symmetry_multiplicity
 _atom_site_fract_x
 _atom_site_fract_y
 _atom_site_fract_z
 _atom_site_fract_occupancy
 Cu  Cu1  1  -0.00064  -0.00196  -0.00128  1
 Fe  Fe1  1  0.50313  0.00056  0.00626  1
 Fe  Fe2  1  -0.00562  0.00060  0.49750  1
 Fe  Fe3  1  0.50312  0.00061  0.49750  1
 Li  Li1  1  0.00104  0.50193  0.00206  1
 Li  Li2  1  0.49978  0.50192  0.50071  1
 Li  Li3  1  0.00095  0.50191  0.50072  1
 O  O1  1  0.26087  0.78258  0.52175  1
 O  O2  1  0.75338  0.77880  0.50677  1
 O  O3  1  0.27207  0.77877  0.02546  1
 O  O4  1  0.74400  0.23192  0.48798  1
 O  O5  1  0.75343  0.77881  0.02546  1
 O  O6  1  0.24461  0.21453  0.48922  1
 O  O7  1  0.72530  0.21452  0.96994  1
 O  O8  1  0.24460  0.21450  0.96995  1
