CIF file written using JARVIS-Tools package.
data_Tb3Si4Cu4
_symmetry_space_group_name_H-M  'Immm'
_cell_length_a       4.16862
_cell_length_b       6.56949
_cell_length_c       7.92533
_cell_angle_alpha    114.486
_cell_angle_beta     105.248
_cell_angle_gamma    89.9998

_symmetry_Int_Tables_number  71
_chemical_formula_structural  Tb3Si4Cu4
_chemical_formula_sum  Tb3Si4Cu4
_cell_volume  189.09317602729752
_cell_formula_units_Z  1
loop_
  _symmetry_equiv_pos_site_id
 _symmetry_equiv_pos_as_xyz
 1  'x, y, z'
loop_
 _atom_site_type_symbol
 _atom_site_label
 _atom_site_symmetry_multiplicity
 _atom_site_fract_x
 _atom_site_fract_y
 _atom_site_fract_z
 _atom_site_fract_occupancy
 Cu  Cu1  1  0.33252  0.52277  0.66505  1
 Cu  Cu2  1  0.66750  0.85776  0.33499  1
 Cu  Cu3  1  0.33250  0.14224  0.66501  1
 Cu  Cu4  1  0.66748  0.47723  0.33495  1
 Si  Si1  1  0.50000  0.81521  0.00001  1
 Si  Si2  1  0.50000  0.18479  0.99999  1
 Si  Si3  1  0.78430  0.28431  0.56861  1
 Si  Si4  1  0.21570  0.71569  0.43139  1
 Tb  Tb1  1  0.86929  0.86928  0.73859  1
 Tb  Tb2  1  0.13071  0.13072  0.26141  1
 Tb  Tb3  1  -0.00000  0.50000  -0.00000  1
