CIF file written using JARVIS-Tools package.
data_BaCe
_symmetry_space_group_name_H-M  'P-6m2'
_cell_length_a       3.69292
_cell_length_b       6.46364
_cell_length_c       3.69353
_cell_angle_alpha    90
_cell_angle_beta     119.998
_cell_angle_gamma    90

_symmetry_Int_Tables_number  187
_chemical_formula_structural  BaCe
_chemical_formula_sum  BaCe
_cell_volume  76.35345426390842
_cell_formula_units_Z  1
loop_
  _symmetry_equiv_pos_site_id
 _symmetry_equiv_pos_as_xyz
 1  'x, y, z'
loop_
 _atom_site_type_symbol
 _atom_site_label
 _atom_site_symmetry_multiplicity
 _atom_site_fract_x
 _atom_site_fract_y
 _atom_site_fract_z
 _atom_site_fract_occupancy
 Ba  Ba1  1  0.33335  0.50000  0.66680  1
 Ce  Ce1  1  0.66665  0.00000  0.33320  1
