CIF file written using JARVIS-Tools package.
data_LiPRh2
_symmetry_space_group_name_H-M  'C2/m'
_cell_length_a       10.4497
_cell_length_b       5.80827
_cell_length_c       5.80828
_cell_angle_alpha    42.4747
_cell_angle_beta     25.7668
_cell_angle_gamma    25.7668

_symmetry_Int_Tables_number  12
_chemical_formula_structural  LiPRh2
_chemical_formula_sum  LiPRh2
_cell_volume  61.38068042370382
_cell_formula_units_Z  1
loop_
  _symmetry_equiv_pos_site_id
 _symmetry_equiv_pos_as_xyz
 1  'x, y, z'
loop_
 _atom_site_type_symbol
 _atom_site_label
 _atom_site_symmetry_multiplicity
 _atom_site_fract_x
 _atom_site_fract_y
 _atom_site_fract_z
 _atom_site_fract_occupancy
 Li  Li1  1  0.00000  1.00000  1.00000  1
 P  P1  1  0.50000  1.00000  1.00000  1
 Rh  Rh1  1  0.70718  -0.00007  -0.00007  1
 Rh  Rh2  1  0.29281  0.00007  0.00007  1
