CIF file written using JARVIS-Tools package.
data_AlHO2
_symmetry_space_group_name_H-M  'Pmc2_1'
_cell_length_a       3.82029
_cell_length_b       3.89949
_cell_length_c       3.92165
_cell_angle_alpha    90
_cell_angle_beta     89.9998
_cell_angle_gamma    90

_symmetry_Int_Tables_number  26
_chemical_formula_structural  AlHO2
_chemical_formula_sum  Al2H2O4
_cell_volume  58.42172065766808
_cell_formula_units_Z  2
loop_
  _symmetry_equiv_pos_site_id
 _symmetry_equiv_pos_as_xyz
 1  'x, y, z'
loop_
 _atom_site_type_symbol
 _atom_site_label
 _atom_site_symmetry_multiplicity
 _atom_site_fract_x
 _atom_site_fract_y
 _atom_site_fract_z
 _atom_site_fract_occupancy
 Al  Al1  1  0.00002  0.21929  0.23830  1
 Al  Al2  1  -0.00002  0.71929  0.76170  1
 H  H1  1  0.50002  0.44999  0.43977  1
 H  H2  1  0.49998  0.94999  0.56023  1
 O  O1  1  0.00000  0.22772  0.75310  1
 O  O2  1  0.49999  0.74500  0.71939  1
 O  O3  1  0.50001  0.24500  0.28061  1
 O  O4  1  -0.00000  0.72772  0.24690  1
