CIF file written using JARVIS-Tools package.
data_Li2VO2
_symmetry_space_group_name_H-M  'P-3m1'
_cell_length_a       3.17753
_cell_length_b       3.17753
_cell_length_c       5.0717
_cell_angle_alpha    90
_cell_angle_beta     90
_cell_angle_gamma    120

_symmetry_Int_Tables_number  164
_chemical_formula_structural  Li2VO2
_chemical_formula_sum  Li2VO2
_cell_volume  44.3467580254631
_cell_formula_units_Z  1
loop_
  _symmetry_equiv_pos_site_id
 _symmetry_equiv_pos_as_xyz
 1  'x, y, z'
loop_
 _atom_site_type_symbol
 _atom_site_label
 _atom_site_symmetry_multiplicity
 _atom_site_fract_x
 _atom_site_fract_y
 _atom_site_fract_z
 _atom_site_fract_occupancy
 Li  Li1  1  0.66667  0.33333  0.36535  1
 Li  Li2  1  0.33333  0.66667  0.63465  1
 O  O1  1  0.66667  0.33333  0.76117  1
 O  O2  1  0.33333  0.66667  0.23883  1
 V  V1  1  0.00000  0.00000  0.00000  1
