CIF file written using JARVIS-Tools package.
data_Li2CdPt
_symmetry_space_group_name_H-M  'Immm'
_cell_length_a       10.1601
_cell_length_b       5.79894
_cell_length_c       5.79894
_cell_angle_alpha    48.6425
_cell_angle_beta     28.8323
_cell_angle_gamma    28.8323

_symmetry_Int_Tables_number  71
_chemical_formula_structural  Li2CdPt
_chemical_formula_sum  Li2CdPt
_cell_volume  70.60436042301376
_cell_formula_units_Z  1
loop_
  _symmetry_equiv_pos_site_id
 _symmetry_equiv_pos_as_xyz
 1  'x, y, z'
loop_
 _atom_site_type_symbol
 _atom_site_label
 _atom_site_symmetry_multiplicity
 _atom_site_fract_x
 _atom_site_fract_y
 _atom_site_fract_z
 _atom_site_fract_occupancy
 Cd  Cd1  1  0.00000  0.00000  0.00000  1
 Li  Li1  1  0.73393  -0.00000  -0.00000  1
 Li  Li2  1  0.26607  0.00000  0.00000  1
 Pt  Pt1  1  0.50000  -0.00000  -0.00000  1
