CIF file written using JARVIS-Tools package.
data_LiMnF4
_symmetry_space_group_name_H-M  'P2_1/c'
_cell_length_a       5.88039
_cell_length_b       4.66046
_cell_length_c       10.383
_cell_angle_alpha    90
_cell_angle_beta     89.8198
_cell_angle_gamma    90

_symmetry_Int_Tables_number  14
_chemical_formula_structural  LiMnF4
_chemical_formula_sum  Li4Mn4F6
_cell_volume  284.5474647024043
_cell_formula_units_Z  4
loop_
  _symmetry_equiv_pos_site_id
 _symmetry_equiv_pos_as_xyz
 1  'x, y, z'
loop_
 _atom_site_type_symbol
 _atom_site_label
 _atom_site_symmetry_multiplicity
 _atom_site_fract_x
 _atom_site_fract_y
 _atom_site_fract_z
 _atom_site_fract_occupancy
 F  F1  1  0.60233  0.77924  0.54971  1
 F  F2  1  0.13818  0.19649  0.71294  1
 F  F3  1  0.13818  0.30351  0.21294  1
 F  F4  1  0.13894  0.79160  0.54878  1
 F  F5  1  0.86182  0.69649  0.78706  1
 F  F6  1  0.39767  0.27924  0.95029  1
 F  F7  1  0.39767  0.22076  0.45029  1
 F  F8  1  0.13894  0.70840  0.04878  1
 F  F9  1  0.39349  0.80463  0.29097  1
 F  F10  1  0.60651  0.19537  0.70903  1
 F  F11  1  0.60651  0.30463  0.20903  1
 F  F12  1  0.86182  0.80351  0.28706  1
 F  F13  1  0.60233  0.72076  0.04971  1
 F  F14  1  0.86106  0.29160  0.95122  1
 F  F15  1  0.86106  0.20840  0.45122  1
 F  F16  1  0.39349  0.69537  0.79097  1
 Li  Li1  1  0.87584  0.53537  0.14027  1
 Li  Li2  1  0.87584  -0.03537  0.64027  1
 Li  Li3  1  0.12416  0.03537  0.35973  1
 Li  Li4  1  0.12416  0.46463  0.85973  1
 Mn  Mn1  1  0.63380  0.01491  0.36689  1
 Mn  Mn2  1  0.63380  0.48509  0.86689  1
 Mn  Mn3  1  0.36620  0.51491  0.13311  1
 Mn  Mn4  1  0.36620  -0.01491  0.63311  1
