CIF file written using JARVIS-Tools package.
data_LiCoSiO4
_symmetry_space_group_name_H-M  'P4_122'
_cell_length_a       5.55327
_cell_length_b       5.55329
_cell_length_c       7.81757
_cell_angle_alpha    90
_cell_angle_beta     90.0001
_cell_angle_gamma    90

_symmetry_Int_Tables_number  91
_chemical_formula_structural  LiCoSiO4
_chemical_formula_sum  Li4Co4Si4O6
_cell_volume  241.08560287235298
_cell_formula_units_Z  4
loop_
  _symmetry_equiv_pos_site_id
 _symmetry_equiv_pos_as_xyz
 1  'x, y, z'
loop_
 _atom_site_type_symbol
 _atom_site_label
 _atom_site_symmetry_multiplicity
 _atom_site_fract_x
 _atom_site_fract_y
 _atom_site_fract_z
 _atom_site_fract_occupancy
 Co  Co1  1  0.50000  0.24186  0.50000  1
 Co  Co2  1  0.75814  0.50000  0.75000  1
 Co  Co3  1  0.24186  0.50000  0.25000  1
 Co  Co4  1  0.50000  0.75815  -0.00000  1
 Li  Li1  1  0.77025  0.00000  0.75000  1
 Li  Li2  1  0.22975  0.00000  0.25000  1
 Li  Li3  1  0.00000  0.22975  0.50000  1
 Li  Li4  1  0.00000  0.77025  0.00000  1
 O  O1  1  0.26263  0.99310  0.51080  1
 O  O2  1  0.49773  0.26119  0.25365  1
 O  O3  1  0.50227  0.26119  0.74635  1
 O  O4  1  0.73737  0.99310  0.48920  1
 O  O5  1  0.00690  0.26263  0.76080  1
 O  O6  1  0.73737  0.00690  0.01080  1
 O  O7  1  0.26119  0.49773  0.49635  1
 O  O8  1  0.99310  0.26263  0.23920  1
 O  O9  1  0.73881  0.50227  -0.00365  1
 O  O10  1  0.99310  0.73738  0.26080  1
 O  O11  1  0.49773  0.73881  0.24635  1
 O  O12  1  0.50227  0.73881  0.75365  1
 O  O13  1  0.73881  0.49773  0.50365  1
 O  O14  1  0.00690  0.73738  0.73920  1
 O  O15  1  0.26119  0.50227  0.00365  1
 O  O16  1  0.26263  0.00690  0.98920  1
 Si  Si1  1  0.74480  0.25520  0.12500  1
 Si  Si2  1  0.25520  0.25520  0.87500  1
 Si  Si3  1  0.74480  0.74480  0.37500  1
 Si  Si4  1  0.25520  0.74480  0.62500  1
