CIF file written using JARVIS-Tools package.
data_BaIn2Ir
_symmetry_space_group_name_H-M  'Cmcm'
_cell_length_a       4.41035
_cell_length_b       6.26349
_cell_length_c       8.2359
_cell_angle_alpha    90
_cell_angle_beta     90
_cell_angle_gamma    110.614

_symmetry_Int_Tables_number  63
_chemical_formula_structural  BaIn2Ir
_chemical_formula_sum  Ba2In4Ir2
_cell_volume  212.94329147419836
_cell_formula_units_Z  2
loop_
  _symmetry_equiv_pos_site_id
 _symmetry_equiv_pos_as_xyz
 1  'x, y, z'
loop_
 _atom_site_type_symbol
 _atom_site_label
 _atom_site_symmetry_multiplicity
 _atom_site_fract_x
 _atom_site_fract_y
 _atom_site_fract_z
 _atom_site_fract_occupancy
 Ba  Ba1  1  0.94485  0.88970  0.25000  1
 Ba  Ba2  1  0.05515  0.11030  0.75000  1
 In  In1  1  0.33843  0.67686  0.55438  1
 In  In2  1  0.66157  0.32314  0.44562  1
 In  In3  1  0.33843  0.67686  0.94562  1
 In  In4  1  0.66157  0.32314  0.05438  1
 Ir  Ir1  1  0.77928  0.55856  0.75000  1
 Ir  Ir2  1  0.22072  0.44144  0.25000  1
