CIF file written using JARVIS-Tools package.
data_Li4Mn3F10
_symmetry_space_group_name_H-M  'P-1'
_cell_length_a       5.096
_cell_length_b       5.43671
_cell_length_c       7.60053
_cell_angle_alpha    70.7837
_cell_angle_beta     74.2008
_cell_angle_gamma    78.6332

_symmetry_Int_Tables_number  2
_chemical_formula_structural  Li4Mn3F10
_chemical_formula_sum  Li4Mn3F0
_cell_volume  189.98817265931223
_cell_formula_units_Z  1
loop_
  _symmetry_equiv_pos_site_id
 _symmetry_equiv_pos_as_xyz
 1  'x, y, z'
loop_
 _atom_site_type_symbol
 _atom_site_label
 _atom_site_symmetry_multiplicity
 _atom_site_fract_x
 _atom_site_fract_y
 _atom_site_fract_z
 _atom_site_fract_occupancy
 F  F1  1  0.75183  0.63556  0.61007  1
 F  F2  1  0.88933  0.59391  0.15910  1
 F  F3  1  0.17611  0.94630  0.73931  1
 F  F4  1  0.50000  -0.00000  0.00000  1
 F  F5  1  0.50000  0.50000  -0.00000  1
 F  F6  1  0.29100  0.84951  0.36397  1
 F  F7  1  0.24817  0.36444  0.38993  1
 F  F8  1  0.82389  0.05370  0.26069  1
 F  F9  1  0.11067  0.40609  0.84090  1
 F  F10  1  0.70900  0.15049  0.63603  1
 Li  Li1  1  0.01714  0.29770  0.65215  1
 Li  Li2  1  0.49895  0.35852  0.79447  1
 Li  Li3  1  0.50105  0.64148  0.20553  1
 Li  Li4  1  0.98286  0.70230  0.34785  1
 Mn  Mn1  1  0.82365  0.75949  0.85583  1
 Mn  Mn2  1  0.50000  0.00000  0.50000  1
 Mn  Mn3  1  0.17635  0.24051  0.14417  1
