CIF file written using JARVIS-Tools package.
data_BaZnO2
_symmetry_space_group_name_H-M  'P3_121'
_cell_length_a       5.9384
_cell_length_b       5.9384
_cell_length_c       6.7977
_cell_angle_alpha    90
_cell_angle_beta     90
_cell_angle_gamma    120

_symmetry_Int_Tables_number  152
_chemical_formula_structural  BaZnO2
_chemical_formula_sum  Ba3Zn3O6
_cell_volume  207.6020247946173
_cell_formula_units_Z  3
loop_
  _symmetry_equiv_pos_site_id
 _symmetry_equiv_pos_as_xyz
 1  'x, y, z'
loop_
 _atom_site_type_symbol
 _atom_site_label
 _atom_site_symmetry_multiplicity
 _atom_site_fract_x
 _atom_site_fract_y
 _atom_site_fract_z
 _atom_site_fract_occupancy
 Ba  Ba1  1  0.65428  0.65428  0.00000  1
 Ba  Ba2  1  -0.00000  0.34572  0.66667  1
 Ba  Ba3  1  0.34572  -0.00000  0.33333  1
 O  O1  1  0.12471  0.70191  0.95840  1
 O  O2  1  0.57720  0.87529  0.62506  1
 O  O3  1  0.29809  0.42280  0.29173  1
 O  O4  1  0.70191  0.12471  0.04160  1
 O  O5  1  0.42280  0.29809  0.70827  1
 O  O6  1  0.87529  0.57720  0.37494  1
 Zn  Zn1  1  0.41236  -0.00000  0.83333  1
 Zn  Zn2  1  -0.00000  0.41236  0.16667  1
 Zn  Zn3  1  0.58764  0.58764  0.50000  1
