CIF file written using JARVIS-Tools package.
data_Hf2TcIr
_symmetry_space_group_name_H-M  'Fm-3m'
_cell_length_a       11.278
_cell_length_b       7.97595
_cell_length_c       7.97595
_cell_angle_alpha    33.5534
_cell_angle_beta     19.4713
_cell_angle_gamma    19.4713

_symmetry_Int_Tables_number  225
_chemical_formula_structural  Hf2TcIr
_chemical_formula_sum  Hf2TcIr
_cell_volume  69.05481567408216
_cell_formula_units_Z  1
loop_
  _symmetry_equiv_pos_site_id
 _symmetry_equiv_pos_as_xyz
 1  'x, y, z'
loop_
 _atom_site_type_symbol
 _atom_site_label
 _atom_site_symmetry_multiplicity
 _atom_site_fract_x
 _atom_site_fract_y
 _atom_site_fract_z
 _atom_site_fract_occupancy
 Hf  Hf1  1  0.74998  0.00004  0.00004  1
 Hf  Hf2  1  0.25002  -0.00004  -0.00004  1
 Ir  Ir1  1  0.50000  0.00000  0.00000  1
 Tc  Tc1  1  0.00000  0.00000  0.00000  1
