CIF file written using JARVIS-Tools package.
data_Li2MnO2F
_symmetry_space_group_name_H-M  'C2/c'
_cell_length_a       5.10021
_cell_length_b       5.10021
_cell_length_c       10.1796
_cell_angle_alpha    80.0549
_cell_angle_beta     99.9451
_cell_angle_gamma    60.2717

_symmetry_Int_Tables_number  15
_chemical_formula_structural  Li2MnO2F
_chemical_formula_sum  Li8Mn4O8F4
_cell_volume  215.9085672188811
_cell_formula_units_Z  4
loop_
  _symmetry_equiv_pos_site_id
 _symmetry_equiv_pos_as_xyz
 1  'x, y, z'
loop_
 _atom_site_type_symbol
 _atom_site_label
 _atom_site_symmetry_multiplicity
 _atom_site_fract_x
 _atom_site_fract_y
 _atom_site_fract_z
 _atom_site_fract_occupancy
 F  F1  1  0.57923  0.09990  0.13608  1
 F  F2  1  0.09990  0.57923  0.86392  1
 F  F3  1  0.90010  0.42077  0.63608  1
 F  F4  1  0.42077  0.90010  0.36392  1
 Li  Li1  1  0.51354  0.51354  0.00000  1
 Li  Li2  1  0.67218  0.63556  0.25488  1
 Li  Li3  1  0.00000  -0.00000  0.75000  1
 Li  Li4  1  0.00000  -0.00000  0.25000  1
 Li  Li5  1  0.36444  0.32782  0.75488  1
 Li  Li6  1  0.63556  0.67218  0.74512  1
 Li  Li7  1  0.32782  0.36444  0.24512  1
 Li  Li8  1  0.48646  0.48646  0.50000  1
 Mn  Mn1  1  0.84147  0.84147  0.50000  1
 Mn  Mn2  1  0.16356  0.16356  0.50000  1
 Mn  Mn3  1  0.83644  0.83644  0.00000  1
 Mn  Mn4  1  0.15853  0.15853  0.00000  1
 O  O1  1  0.23588  0.77998  0.61776  1
 O  O2  1  0.06452  0.57360  0.39475  1
 O  O3  1  0.76412  0.22002  0.88224  1
 O  O4  1  0.57360  0.06452  0.60525  1
 O  O5  1  0.77998  0.23588  0.38224  1
 O  O6  1  0.93548  0.42640  0.10525  1
 O  O7  1  0.42640  0.93548  0.89475  1
 O  O8  1  0.22002  0.76412  0.11776  1
