CIF file written using JARVIS-Tools package.
data_LiSbO3
_symmetry_space_group_name_H-M  'P2_13'
_cell_length_a       5.98793
_cell_length_b       5.98793
_cell_length_c       5.98793
_cell_angle_alpha    90
_cell_angle_beta     90
_cell_angle_gamma    90

_symmetry_Int_Tables_number  198
_chemical_formula_structural  LiSbO3
_chemical_formula_sum  Li4Sb4O2
_cell_volume  214.69921456062934
_cell_formula_units_Z  4
loop_
  _symmetry_equiv_pos_site_id
 _symmetry_equiv_pos_as_xyz
 1  'x, y, z'
loop_
 _atom_site_type_symbol
 _atom_site_label
 _atom_site_symmetry_multiplicity
 _atom_site_fract_x
 _atom_site_fract_y
 _atom_site_fract_z
 _atom_site_fract_occupancy
 Li  Li1  1  0.87399  0.87399  0.87399  1
 Li  Li2  1  0.62601  0.12601  0.37399  1
 Li  Li3  1  0.37399  0.62601  0.12601  1
 Li  Li4  1  0.12601  0.37399  0.62601  1
 O  O1  1  0.98544  0.22694  0.36492  1
 O  O2  1  0.86492  0.51456  0.77306  1
 O  O3  1  0.22694  0.36492  0.98544  1
 O  O4  1  0.27306  0.63508  0.48544  1
 O  O5  1  0.13508  0.01456  0.72694  1
 O  O6  1  0.51456  0.77306  0.86492  1
 O  O7  1  0.48544  0.27306  0.63508  1
 O  O8  1  0.72694  0.13508  0.01456  1
 O  O9  1  0.36492  0.98544  0.22694  1
 O  O10  1  0.77306  0.86492  0.51456  1
 O  O11  1  0.63508  0.48544  0.27306  1
 O  O12  1  0.01456  0.72694  0.13508  1
 Sb  Sb1  1  0.90890  0.40890  0.09110  1
 Sb  Sb2  1  0.59110  0.59110  0.59110  1
 Sb  Sb3  1  0.40890  0.09110  0.90890  1
 Sb  Sb4  1  0.09110  0.90890  0.40890  1
