CIF file written using JARVIS-Tools package.
data_Li3Mn4VO8
_symmetry_space_group_name_H-M  'C2/m'
_cell_length_a       5.99709
_cell_length_b       5.99709
_cell_length_c       6.07924
_cell_angle_alpha    85.2858
_cell_angle_beta     57.5881
_cell_angle_gamma    57.3186

_symmetry_Int_Tables_number  12
_chemical_formula_structural  Li3Mn4VO8
_chemical_formula_sum  Li3Mn4VO8
_cell_volume  148.60403162804988
_cell_formula_units_Z  1
loop_
  _symmetry_equiv_pos_site_id
 _symmetry_equiv_pos_as_xyz
 1  'x, y, z'
loop_
 _atom_site_type_symbol
 _atom_site_label
 _atom_site_symmetry_multiplicity
 _atom_site_fract_x
 _atom_site_fract_y
 _atom_site_fract_z
 _atom_site_fract_occupancy
 Li  Li1  1  0.00000  -0.00000  0.50000  1
 Li  Li2  1  0.50000  -0.00000  0.50000  1
 Li  Li3  1  0.50000  0.50000  0.50000  1
 Mn  Mn1  1  0.00000  0.50000  0.50000  1
 Mn  Mn2  1  0.00000  0.00000  0.00000  1
 Mn  Mn3  1  0.50000  0.00000  0.00000  1
 Mn  Mn4  1  0.00000  0.50000  -0.00000  1
 O  O1  1  0.47920  0.26506  0.78586  1
 O  O2  1  0.99904  0.23538  0.74356  1
 O  O3  1  0.49182  0.74260  0.74356  1
 O  O4  1  0.98156  0.74189  0.76033  1
 O  O5  1  0.01844  0.25811  0.23967  1
 O  O6  1  0.50818  0.25740  0.25644  1
 O  O7  1  0.00096  0.76462  0.25644  1
 O  O8  1  0.52080  0.73494  0.21414  1
 V  V1  1  0.50000  0.50000  0.00000  1
