CIF file written using JARVIS-Tools package.
data_RbGa3S5
_symmetry_space_group_name_H-M  'P2_1/c'
_cell_length_a       7.18526
_cell_length_b       10.1159
_cell_length_c       12.7438
_cell_angle_alpha    90
_cell_angle_beta     90
_cell_angle_gamma    102.064

_symmetry_Int_Tables_number  14
_chemical_formula_structural  RbGa3S5
_chemical_formula_sum  Rb4Ga2S20
_cell_volume  905.8367912596813
_cell_formula_units_Z  4
loop_
  _symmetry_equiv_pos_site_id
 _symmetry_equiv_pos_as_xyz
 1  'x, y, z'
loop_
 _atom_site_type_symbol
 _atom_site_label
 _atom_site_symmetry_multiplicity
 _atom_site_fract_x
 _atom_site_fract_y
 _atom_site_fract_z
 _atom_site_fract_occupancy
 Ga  Ga1  1  0.79676  0.10036  0.41595  1
 Ga  Ga2  1  0.28537  0.12377  0.33322  1
 Ga  Ga3  1  0.20324  0.39964  0.91595  1
 Ga  Ga4  1  0.20324  0.89964  0.58405  1
 Ga  Ga5  1  0.71463  0.37623  0.83322  1
 Ga  Ga6  1  0.28537  0.62377  0.16678  1
 Ga  Ga7  1  0.55758  0.70156  0.89923  1
 Ga  Ga8  1  0.79676  0.60036  0.08405  1
 Ga  Ga9  1  0.55758  0.20156  0.60077  1
 Ga  Ga10  1  0.71463  0.87623  0.66678  1
 Ga  Ga11  1  0.44242  0.29844  0.10077  1
 Ga  Ga12  1  0.44242  0.79844  0.39923  1
 Rb  Rb1  1  0.16161  0.40812  0.60830  1
 Rb  Rb2  1  0.16161  0.90812  0.89170  1
 Rb  Rb3  1  0.83839  0.59188  0.39170  1
 Rb  Rb4  1  0.83839  0.09188  0.10830  1
 S  S1  1  0.28055  0.59618  0.82923  1
 S  S2  1  0.56401  0.23727  0.41685  1
 S  S3  1  0.28055  0.09618  0.67077  1
 S  S4  1  0.18578  0.90668  0.40002  1
 S  S5  1  0.71945  0.90382  0.32923  1
 S  S6  1  0.65484  0.41465  0.66106  1
 S  S7  1  0.43599  0.76273  0.58315  1
 S  S8  1  0.81422  0.09332  0.59998  1
 S  S9  1  0.18578  0.40668  0.09998  1
 S  S10  1  0.34516  0.58535  0.33894  1
 S  S11  1  0.71945  0.40382  0.17077  1
 S  S12  1  0.56401  0.73727  0.08315  1
 S  S13  1  0.43599  0.26273  0.91685  1
 S  S14  1  0.94193  0.25275  0.85868  1
 S  S15  1  0.05807  0.74725  0.14132  1
 S  S16  1  0.65484  0.91465  0.83894  1
 S  S17  1  0.81422  0.59332  0.90002  1
 S  S18  1  0.05807  0.24725  0.35868  1
 S  S19  1  0.94193  0.75275  0.64132  1
 S  S20  1  0.34516  0.08535  0.16106  1
