CIF file written using JARVIS-Tools package.
data_Fe2N
_symmetry_space_group_name_H-M  'P-31m'
_cell_length_a       4.72509
_cell_length_b       4.72509
_cell_length_c       4.32553
_cell_angle_alpha    90
_cell_angle_beta     90
_cell_angle_gamma    120

_symmetry_Int_Tables_number  162
_chemical_formula_structural  Fe2N
_chemical_formula_sum  Fe6N3
_cell_volume  83.63548156894781
_cell_formula_units_Z  3
loop_
  _symmetry_equiv_pos_site_id
 _symmetry_equiv_pos_as_xyz
 1  'x, y, z'
loop_
 _atom_site_type_symbol
 _atom_site_label
 _atom_site_symmetry_multiplicity
 _atom_site_fract_x
 _atom_site_fract_y
 _atom_site_fract_z
 _atom_site_fract_occupancy
 Fe  Fe1  1  0.33166  0.33166  0.25024  1
 Fe  Fe2  1  0.66834  -0.00000  0.25024  1
 Fe  Fe3  1  -0.00000  0.66834  0.25024  1
 Fe  Fe4  1  0.00000  0.33166  0.74976  1
 Fe  Fe5  1  0.66834  0.66834  0.74976  1
 Fe  Fe6  1  0.33166  0.00000  0.74976  1
 N  N1  1  0.33333  0.66667  0.50000  1
 N  N2  1  0.66667  0.33333  0.50000  1
 N  N3  1  0.00000  0.00000  0.00000  1
