CIF file written using JARVIS-Tools package.
data_TiAlO3
_symmetry_space_group_name_H-M  'P-1'
_cell_length_a       4.93117
_cell_length_b       4.91583
_cell_length_c       5.39244
_cell_angle_alpha    63.1229
_cell_angle_beta     63.89
_cell_angle_gamma    60.3031

_symmetry_Int_Tables_number  2
_chemical_formula_structural  TiAlO3
_chemical_formula_sum  Ti2Al2O6
_cell_volume  97.26256646712186
_cell_formula_units_Z  2
loop_
  _symmetry_equiv_pos_site_id
 _symmetry_equiv_pos_as_xyz
 1  'x, y, z'
loop_
 _atom_site_type_symbol
 _atom_site_label
 _atom_site_symmetry_multiplicity
 _atom_site_fract_x
 _atom_site_fract_y
 _atom_site_fract_z
 _atom_site_fract_occupancy
 Al  Al1  1  0.84773  0.84902  0.45495  1
 Al  Al2  1  0.15227  0.15098  0.54505  1
 O  O1  1  0.94561  0.22928  0.26204  1
 O  O2  1  0.55649  0.94721  0.26534  1
 O  O3  1  0.22426  0.56189  0.26843  1
 O  O4  1  0.77574  0.43811  0.73157  1
 O  O5  1  0.44351  0.05279  0.73466  1
 O  O6  1  0.05439  0.77072  0.73796  1
 Ti  Ti1  1  0.64285  0.64290  0.05487  1
 Ti  Ti2  1  0.35715  0.35710  0.94513  1
