CIF file written using JARVIS-Tools package.
data_AgBiO2
_symmetry_space_group_name_H-M  'R-3m'
_cell_length_a       3.67262
_cell_length_b       3.67261
_cell_length_c       6.74083
_cell_angle_alpha    74.192
_cell_angle_beta     74.1919
_cell_angle_gamma    60

_symmetry_Int_Tables_number  166
_chemical_formula_structural  AgBiO2
_chemical_formula_sum  AgBiO2
_cell_volume  74.74287580386334
_cell_formula_units_Z  1
loop_
  _symmetry_equiv_pos_site_id
 _symmetry_equiv_pos_as_xyz
 1  'x, y, z'
loop_
 _atom_site_type_symbol
 _atom_site_label
 _atom_site_symmetry_multiplicity
 _atom_site_fract_x
 _atom_site_fract_y
 _atom_site_fract_z
 _atom_site_fract_occupancy
 Ag  Ag1  1  0.50000  0.50000  0.50000  1
 Bi  Bi1  1  0.00000  0.00000  0.00000  1
 O  O1  1  0.39264  0.39264  0.82209  1
 O  O2  1  0.60736  0.60736  0.17791  1
