CIF file written using JARVIS-Tools package.
data_MnZnO3
_symmetry_space_group_name_H-M  'Pnma'
_cell_length_a       5.0381
_cell_length_b       5.11948
_cell_length_c       7.32537
_cell_angle_alpha    90
_cell_angle_beta     90
_cell_angle_gamma    90

_symmetry_Int_Tables_number  62
_chemical_formula_structural  MnZnO3
_chemical_formula_sum  Mn4Zn4O2
_cell_volume  188.93935517750242
_cell_formula_units_Z  4
loop_
  _symmetry_equiv_pos_site_id
 _symmetry_equiv_pos_as_xyz
 1  'x, y, z'
loop_
 _atom_site_type_symbol
 _atom_site_label
 _atom_site_symmetry_multiplicity
 _atom_site_fract_x
 _atom_site_fract_y
 _atom_site_fract_z
 _atom_site_fract_occupancy
 Mn  Mn1  1  0.50000  0.00000  0.00000  1
 Mn  Mn2  1  0.50000  0.00000  0.50000  1
 Mn  Mn3  1  0.00000  0.50000  0.00000  1
 Mn  Mn4  1  0.00000  0.50000  0.50000  1
 O  O1  1  0.61471  0.05996  0.75000  1
 O  O2  1  0.81692  0.81227  0.43869  1
 O  O3  1  0.18308  0.18773  0.93869  1
 O  O4  1  0.68308  0.31227  0.06131  1
 O  O5  1  0.18308  0.18773  0.56131  1
 O  O6  1  0.11471  0.44004  0.25000  1
 O  O7  1  0.88529  0.55996  0.75000  1
 O  O8  1  0.31692  0.68773  0.56131  1
 O  O9  1  0.68308  0.31227  0.43869  1
 O  O10  1  0.81692  0.81227  0.06131  1
 O  O11  1  0.31692  0.68773  0.93869  1
 O  O12  1  0.38529  0.94004  0.25000  1
 Zn  Zn1  1  0.00377  0.95664  0.75000  1
 Zn  Zn2  1  0.50377  0.54336  0.25000  1
 Zn  Zn3  1  0.49623  0.45664  0.75000  1
 Zn  Zn4  1  0.99623  0.04336  0.25000  1
