CIF file written using JARVIS-Tools package.
data_KBF4
_symmetry_space_group_name_H-M  'Pnma'
_cell_length_a       5.38928
_cell_length_b       6.93438
_cell_length_c       8.52423
_cell_angle_alpha    90
_cell_angle_beta     90
_cell_angle_gamma    90

_symmetry_Int_Tables_number  62
_chemical_formula_structural  KBF4
_chemical_formula_sum  K4B4F6
_cell_volume  318.56162956118095
_cell_formula_units_Z  4
loop_
  _symmetry_equiv_pos_site_id
 _symmetry_equiv_pos_as_xyz
 1  'x, y, z'
loop_
 _atom_site_type_symbol
 _atom_site_label
 _atom_site_symmetry_multiplicity
 _atom_site_fract_x
 _atom_site_fract_y
 _atom_site_fract_z
 _atom_site_fract_occupancy
 B  B1  1  0.25000  0.68870  0.06747  1
 B  B2  1  0.25000  0.81130  0.56747  1
 B  B3  1  0.75000  0.18870  0.43253  1
 B  B4  1  0.75000  0.31130  0.93253  1
 F  F1  1  0.53592  0.19175  0.92110  1
 F  F2  1  0.46408  0.80825  0.07890  1
 F  F3  1  0.03592  0.69175  0.57890  1
 F  F4  1  0.25000  0.59237  0.92221  1
 F  F5  1  0.75000  0.40763  0.07779  1
 F  F6  1  0.75000  0.09237  0.57779  1
 F  F7  1  0.25000  0.55616  0.19359  1
 F  F8  1  0.75000  0.44384  0.80641  1
 F  F9  1  0.75000  0.05616  0.30641  1
 F  F10  1  0.25000  0.90763  0.42221  1
 F  F11  1  0.03592  0.80825  0.07890  1
 F  F12  1  0.53592  0.30825  0.42110  1
 F  F13  1  0.96408  0.30825  0.42110  1
 F  F14  1  0.46408  0.69175  0.57890  1
 F  F15  1  0.96408  0.19175  0.92110  1
 F  F16  1  0.25000  0.94384  0.69359  1
 K  K1  1  0.75000  0.83855  0.81829  1
 K  K2  1  0.25000  0.33855  0.68171  1
 K  K3  1  0.75000  0.66145  0.31829  1
 K  K4  1  0.25000  0.16145  0.18171  1
