CIF file written using JARVIS-Tools package.
data_LiCoSbO4
_symmetry_space_group_name_H-M  'Imma'
_cell_length_a       5.886
_cell_length_b       6.14518
_cell_length_c       6.14518
_cell_angle_alpha    60.8834
_cell_angle_beta     61.3857
_cell_angle_gamma    61.3857

_symmetry_Int_Tables_number  74
_chemical_formula_structural  LiCoSbO4
_chemical_formula_sum  Li2Co2Sb2O8
_cell_volume  161.47024302803342
_cell_formula_units_Z  2
loop_
  _symmetry_equiv_pos_site_id
 _symmetry_equiv_pos_as_xyz
 1  'x, y, z'
loop_
 _atom_site_type_symbol
 _atom_site_label
 _atom_site_symmetry_multiplicity
 _atom_site_fract_x
 _atom_site_fract_y
 _atom_site_fract_z
 _atom_site_fract_occupancy
 Co  Co1  1  -0.00000  0.50000  0.50000  1
 Co  Co2  1  0.50000  0.50000  0.50000  1
 Li  Li1  1  0.14323  0.10677  0.10677  1
 Li  Li2  1  0.85677  0.89323  0.89323  1
 O  O1  1  0.26382  0.25354  0.25354  1
 O  O2  1  0.27473  0.24366  0.70688  1
 O  O3  1  0.27473  0.70688  0.24366  1
 O  O4  1  0.72911  0.25354  0.25354  1
 O  O5  1  0.27089  0.74646  0.74646  1
 O  O6  1  0.72527  0.75634  0.29312  1
 O  O7  1  0.72527  0.29312  0.75634  1
 O  O8  1  0.73618  0.74646  0.74646  1
 Sb  Sb1  1  0.50000  -0.00000  0.50000  1
 Sb  Sb2  1  0.50000  0.50000  0.00000  1
