CIF file written using JARVIS-Tools package.
data_NaV2O4
_symmetry_space_group_name_H-M  'Pnma'
_cell_length_a       2.88867
_cell_length_b       9.20567
_cell_length_c       10.6939
_cell_angle_alpha    90
_cell_angle_beta     90
_cell_angle_gamma    90

_symmetry_Int_Tables_number  62
_chemical_formula_structural  NaV2O4
_chemical_formula_sum  Na4V8O6
_cell_volume  284.3750535780363
_cell_formula_units_Z  4
loop_
  _symmetry_equiv_pos_site_id
 _symmetry_equiv_pos_as_xyz
 1  'x, y, z'
loop_
 _atom_site_type_symbol
 _atom_site_label
 _atom_site_symmetry_multiplicity
 _atom_site_fract_x
 _atom_site_fract_y
 _atom_site_fract_z
 _atom_site_fract_occupancy
 Na  Na1  1  0.75000  0.25833  0.84694  1
 Na  Na2  1  0.75000  0.75833  0.65306  1
 Na  Na3  1  0.25000  0.24167  0.34694  1
 Na  Na4  1  0.25000  0.74167  0.15306  1
 O  O1  1  0.25000  0.47886  0.21713  1
 O  O2  1  0.75000  0.92142  0.07056  1
 O  O3  1  0.25000  0.57858  0.57056  1
 O  O4  1  0.25000  0.97886  0.28287  1
 O  O5  1  0.75000  0.11157  0.48004  1
 O  O6  1  0.75000  0.70660  0.35248  1
 O  O7  1  0.75000  0.42142  0.42944  1
 O  O8  1  0.25000  0.29340  0.64752  1
 O  O9  1  0.75000  0.20660  0.14752  1
 O  O10  1  0.25000  0.07858  0.92944  1
 O  O11  1  0.75000  0.02114  0.71713  1
 O  O12  1  0.25000  0.38843  0.98004  1
 O  O13  1  0.25000  0.88843  0.51996  1
 O  O14  1  0.25000  0.79340  0.85248  1
 O  O15  1  0.75000  0.52114  0.78287  1
 O  O16  1  0.75000  0.61157  0.01996  1
 V  V1  1  0.75000  0.41335  0.10388  1
 V  V2  1  0.25000  0.56119  0.38542  1
 V  V3  1  0.25000  0.08665  0.60388  1
 V  V4  1  0.75000  0.91335  0.39612  1
 V  V5  1  0.75000  0.93881  0.88542  1
 V  V6  1  0.25000  0.06119  0.11458  1
 V  V7  1  0.75000  0.43881  0.61458  1
 V  V8  1  0.25000  0.58665  0.89612  1
