CIF file written using JARVIS-Tools package.
data_Li4Mn3FeB4O12
_symmetry_space_group_name_H-M  'P1'
_cell_length_a       5.22087
_cell_length_b       6.05896
_cell_length_c       7.86151
_cell_angle_alpha    78.8142
_cell_angle_beta     88.415
_cell_angle_gamma    88.5162

_symmetry_Int_Tables_number  1
_chemical_formula_structural  Li4Mn3FeB4O12
_chemical_formula_sum  Li4Mn3FeB4O2
_cell_volume  243.81289584945822
_cell_formula_units_Z  1
loop_
  _symmetry_equiv_pos_site_id
 _symmetry_equiv_pos_as_xyz
 1  'x, y, z'
loop_
 _atom_site_type_symbol
 _atom_site_label
 _atom_site_symmetry_multiplicity
 _atom_site_fract_x
 _atom_site_fract_y
 _atom_site_fract_z
 _atom_site_fract_occupancy
 B  B1  1  0.92204  0.25672  0.00070  1
 B  B2  1  0.42535  0.76191  0.49828  1
 B  B3  1  0.57510  0.24050  0.49981  1
 B  B4  1  0.07748  0.74068  0.00081  1
 Fe  Fe1  1  0.92884  0.91126  0.32335  1
 Li  Li1  1  0.57241  0.87592  0.80679  1
 Li  Li2  1  0.42801  0.12582  0.19537  1
 Li  Li3  1  0.07091  0.37519  0.30670  1
 Li  Li4  1  0.92709  0.62328  0.69230  1
 Mn  Mn1  1  0.57566  0.59100  0.17735  1
 Mn  Mn2  1  0.42590  0.41140  0.82507  1
 Mn  Mn3  1  0.07207  0.08673  0.67348  1
 O  O1  1  0.83751  0.21562  0.47489  1
 O  O2  1  0.42283  0.34030  0.36446  1
 O  O3  1  0.46309  0.15644  0.66275  1
 O  O4  1  0.54428  0.84791  0.33825  1
 O  O5  1  0.57203  0.66204  0.63609  1
 O  O6  1  0.92556  0.83642  0.86400  1
 O  O7  1  0.03596  0.34114  0.83863  1
 O  O8  1  0.33984  0.71402  0.97643  1
 O  O9  1  0.07190  0.15564  0.13765  1
 O  O10  1  0.96546  0.65890  0.16417  1
 O  O11  1  0.16059  0.78710  0.51777  1
 O  O12  1  0.66007  0.28406  0.02490  1
