CIF file written using JARVIS-Tools package.
data_Li3TaO4
_symmetry_space_group_name_H-M  'P2/c'
_cell_length_a       6.01637
_cell_length_b       6.04055
_cell_length_c       12.8217
_cell_angle_alpha    103.553
_cell_angle_beta     90
_cell_angle_gamma    90

_symmetry_Int_Tables_number  13
_chemical_formula_structural  Li3TaO4
_chemical_formula_sum  Li8Ta6O24
_cell_volume  452.9928025022076
_cell_formula_units_Z  6
loop_
  _symmetry_equiv_pos_site_id
 _symmetry_equiv_pos_as_xyz
 1  'x, y, z'
loop_
 _atom_site_type_symbol
 _atom_site_label
 _atom_site_symmetry_multiplicity
 _atom_site_fract_x
 _atom_site_fract_y
 _atom_site_fract_z
 _atom_site_fract_occupancy
 Li  Li1  1  0.12304  0.17374  0.09165  1
 Li  Li2  1  0.62549  0.87599  0.41722  1
 Li  Li3  1  0.87696  0.82626  0.90835  1
 Li  Li4  1  0.12304  0.82626  0.40835  1
 Li  Li5  1  0.60868  -0.00000  0.75000  1
 Li  Li6  1  0.37451  0.12401  0.58278  1
 Li  Li7  1  0.62549  0.12401  0.08278  1
 Li  Li8  1  0.62487  0.67528  0.07527  1
 Li  Li9  1  0.16714  -0.00000  0.75000  1
 Li  Li10  1  0.62487  0.32472  0.42473  1
 Li  Li11  1  0.37513  0.32472  0.92473  1
 Li  Li12  1  0.39132  -0.00000  0.25000  1
 Li  Li13  1  0.37451  0.87599  0.91722  1
 Li  Li14  1  0.87696  0.17374  0.59165  1
 Li  Li15  1  0.88009  0.50000  0.25000  1
 Li  Li16  1  0.83286  -0.00000  0.25000  1
 Li  Li17  1  0.11991  0.50000  0.75000  1
 Li  Li18  1  0.37513  0.67528  0.57527  1
 O  O1  1  0.38495  0.74143  0.75475  1
 O  O2  1  0.61505  0.74143  0.25475  1
 O  O3  1  0.63803  0.09537  0.92052  1
 O  O4  1  0.35951  0.43481  0.09115  1
 O  O5  1  0.36197  0.90463  0.07948  1
 O  O6  1  0.88789  0.57097  0.42461  1
 O  O7  1  0.35951  0.56519  0.40885  1
 O  O8  1  0.64049  0.43481  0.59115  1
 O  O9  1  0.88527  0.90816  0.08798  1
 O  O10  1  0.63803  0.90463  0.57948  1
 O  O11  1  0.38495  0.25857  0.74525  1
 O  O12  1  0.11211  0.57097  0.92461  1
 O  O13  1  0.13907  0.72965  0.24235  1
 O  O14  1  0.13907  0.27035  0.25765  1
 O  O15  1  0.86093  0.27035  0.75765  1
 O  O16  1  0.11473  0.09184  0.91202  1
 O  O17  1  0.86093  0.72965  0.74235  1
 O  O18  1  0.88789  0.42903  0.07539  1
 O  O19  1  0.64049  0.56519  0.90885  1
 O  O20  1  0.11473  0.90816  0.58798  1
 O  O21  1  0.11211  0.42903  0.57539  1
 O  O22  1  0.88527  0.09184  0.41202  1
 O  O23  1  0.36197  0.09537  0.42052  1
 O  O24  1  0.61505  0.25857  0.24525  1
 Ta  Ta1  1  0.87705  0.69921  0.58355  1
 Ta  Ta2  1  0.41027  0.50000  0.25000  1
 Ta  Ta3  1  0.87705  0.30079  0.91645  1
 Ta  Ta4  1  0.12295  0.69921  0.08355  1
 Ta  Ta5  1  0.58973  0.50000  0.75000  1
 Ta  Ta6  1  0.12295  0.30079  0.41645  1
