CIF file written using JARVIS-Tools package.
data_Tb4Ga12Pt
_symmetry_space_group_name_H-M  'Im-3m'
_cell_length_a       7.47987
_cell_length_b       7.47987
_cell_length_c       7.47987
_cell_angle_alpha    109.471
_cell_angle_beta     109.471
_cell_angle_gamma    109.471

_symmetry_Int_Tables_number  229
_chemical_formula_structural  Tb4Ga12Pt
_chemical_formula_sum  Tb4Ga2Pt
_cell_volume  322.1517822365337
_cell_formula_units_Z  1
loop_
  _symmetry_equiv_pos_site_id
 _symmetry_equiv_pos_as_xyz
 1  'x, y, z'
loop_
 _atom_site_type_symbol
 _atom_site_label
 _atom_site_symmetry_multiplicity
 _atom_site_fract_x
 _atom_site_fract_y
 _atom_site_fract_z
 _atom_site_fract_occupancy
 Ga  Ga1  1  0.29742  0.29742  -0.00000  1
 Ga  Ga2  1  -0.00000  0.29742  0.29742  1
 Ga  Ga3  1  0.70258  0.00000  0.70258  1
 Ga  Ga4  1  0.25000  0.75000  0.50000  1
 Ga  Ga5  1  0.70258  0.70258  0.00000  1
 Ga  Ga6  1  0.75000  0.50000  0.25000  1
 Ga  Ga7  1  0.50000  0.25000  0.75000  1
 Ga  Ga8  1  0.00000  0.70258  0.70258  1
 Ga  Ga9  1  0.75000  0.25000  0.50000  1
 Ga  Ga10  1  0.25000  0.50000  0.75000  1
 Ga  Ga11  1  0.29742  -0.00000  0.29742  1
 Ga  Ga12  1  0.50000  0.75000  0.25000  1
 Pt  Pt1  1  0.00000  0.00000  0.00000  1
 Tb  Tb1  1  0.00000  0.00000  0.50000  1
 Tb  Tb2  1  0.50000  0.50000  0.50000  1
 Tb  Tb3  1  0.00000  0.50000  -0.00000  1
 Tb  Tb4  1  0.50000  0.00000  -0.00000  1
