CIF file written using JARVIS-Tools package.
data_Lu3TaO7
_symmetry_space_group_name_H-M  'Cmcm'
_cell_length_a       6.30785
_cell_length_b       6.30785
_cell_length_c       7.35831
_cell_angle_alpha    90
_cell_angle_beta     90
_cell_angle_gamma    110.341

_symmetry_Int_Tables_number  63
_chemical_formula_structural  Lu3TaO7
_chemical_formula_sum  Lu6Ta2O4
_cell_volume  274.52235637841477
_cell_formula_units_Z  2
loop_
  _symmetry_equiv_pos_site_id
 _symmetry_equiv_pos_as_xyz
 1  'x, y, z'
loop_
 _atom_site_type_symbol
 _atom_site_label
 _atom_site_symmetry_multiplicity
 _atom_site_fract_x
 _atom_site_fract_y
 _atom_site_fract_z
 _atom_site_fract_occupancy
 Lu  Lu1  1  0.05492  0.51533  0.25000  1
 Lu  Lu2  1  0.48467  0.94508  0.75000  1
 Lu  Lu3  1  0.00000  0.00000  0.00000  1
 Lu  Lu4  1  0.00000  0.00000  0.50000  1
 Lu  Lu5  1  0.94508  0.48467  0.75000  1
 Lu  Lu6  1  0.51533  0.05492  0.25000  1
 O  O1  1  0.15467  0.88806  0.25000  1
 O  O2  1  0.11194  0.84533  0.75000  1
 O  O3  1  0.84533  0.11194  0.75000  1
 O  O4  1  0.56509  0.82769  0.46159  1
 O  O5  1  0.17231  0.43491  0.96159  1
 O  O6  1  0.56509  0.82769  0.03841  1
 O  O7  1  0.59088  0.59088  0.75000  1
 O  O8  1  0.43491  0.17231  0.53841  1
 O  O9  1  0.82769  0.56509  0.03841  1
 O  O10  1  0.17231  0.43491  0.53841  1
 O  O11  1  0.43491  0.17231  0.96159  1
 O  O12  1  0.82769  0.56509  0.46159  1
 O  O13  1  0.40912  0.40912  0.25000  1
 O  O14  1  0.88806  0.15467  0.25000  1
 Ta  Ta1  1  0.50000  0.50000  0.50000  1
 Ta  Ta2  1  0.50000  0.50000  0.00000  1
