CIF file written using JARVIS-Tools package.
data_La3S3N
_symmetry_space_group_name_H-M  'Pnma'
_cell_length_a       4.16746
_cell_length_b       12.2061
_cell_length_c       13.2028
_cell_angle_alpha    90
_cell_angle_beta     90
_cell_angle_gamma    90

_symmetry_Int_Tables_number  62
_chemical_formula_structural  La3S3N
_chemical_formula_sum  La2S2N4
_cell_volume  671.6065538678758
_cell_formula_units_Z  4
loop_
  _symmetry_equiv_pos_site_id
 _symmetry_equiv_pos_as_xyz
 1  'x, y, z'
loop_
 _atom_site_type_symbol
 _atom_site_label
 _atom_site_symmetry_multiplicity
 _atom_site_fract_x
 _atom_site_fract_y
 _atom_site_fract_z
 _atom_site_fract_occupancy
 La  La1  1  0.75000  0.90443  0.37550  1
 La  La2  1  0.25000  0.53411  0.34804  1
 La  La3  1  0.25000  0.09557  0.62450  1
 La  La4  1  0.75000  0.40443  0.12450  1
 La  La5  1  0.75000  0.26980  0.37026  1
 La  La6  1  0.25000  0.23020  0.87026  1
 La  La7  1  0.25000  0.03411  0.15196  1
 La  La8  1  0.75000  0.46589  0.65196  1
 La  La9  1  0.25000  0.59557  0.87550  1
 La  La10  1  0.25000  0.73020  0.62974  1
 La  La11  1  0.75000  0.76980  0.12974  1
 La  La12  1  0.75000  0.96589  0.84804  1
 N  N1  1  0.75000  0.44546  0.29827  1
 N  N2  1  0.75000  0.94546  0.20173  1
 N  N3  1  0.25000  0.55454  0.70173  1
 N  N4  1  0.25000  0.05454  0.79827  1
 S  S1  1  0.75000  0.92764  0.60723  1
 S  S2  1  0.25000  0.85436  0.99702  1
 S  S3  1  0.25000  0.26589  0.20503  1
 S  S4  1  0.25000  0.07236  0.39277  1
 S  S5  1  0.75000  0.64564  0.49702  1
 S  S6  1  0.75000  0.23411  0.70503  1
 S  S7  1  0.25000  0.35436  0.50298  1
 S  S8  1  0.25000  0.76589  0.29497  1
 S  S9  1  0.75000  0.42764  0.89277  1
 S  S10  1  0.75000  0.14564  0.00298  1
 S  S11  1  0.25000  0.57236  0.10723  1
 S  S12  1  0.75000  0.73411  0.79497  1
