CIF file written using JARVIS-Tools package.
data_Li4VCr3O8
_symmetry_space_group_name_H-M  'C2/m'
_cell_length_a       5.02655
_cell_length_b       5.80713
_cell_length_c       5.87096
_cell_angle_alpha    119.639
_cell_angle_beta     106.648
_cell_angle_gamma    89.9985

_symmetry_Int_Tables_number  12
_chemical_formula_structural  Li4VCr3O8
_chemical_formula_sum  Li4VCr3O8
_cell_volume  140.62636608099797
_cell_formula_units_Z  1
loop_
  _symmetry_equiv_pos_site_id
 _symmetry_equiv_pos_as_xyz
 1  'x, y, z'
loop_
 _atom_site_type_symbol
 _atom_site_label
 _atom_site_symmetry_multiplicity
 _atom_site_fract_x
 _atom_site_fract_y
 _atom_site_fract_z
 _atom_site_fract_occupancy
 Cr  Cr1  1  -0.00001  0.25299  0.50000  1
 Cr  Cr2  1  0.00001  0.74701  0.50000  1
 Cr  Cr3  1  0.50000  -0.00000  0.50000  1
 Li  Li1  1  0.00529  0.75221  0.00440  1
 Li  Li2  1  0.99471  0.24779  0.99560  1
 Li  Li3  1  0.50000  0.00000  0.00000  1
 Li  Li4  1  0.50000  0.50000  0.00000  1
 O  O1  1  0.75898  0.38258  0.26514  1
 O  O2  1  0.75823  0.88838  0.27675  1
 O  O3  1  0.25558  0.13276  0.26823  1
 O  O4  1  0.74442  0.86724  0.73177  1
 O  O5  1  0.74441  0.36451  0.73177  1
 O  O6  1  0.24102  0.61742  0.73486  1
 O  O7  1  0.25559  0.63549  0.26823  1
 O  O8  1  0.24177  0.11162  0.72325  1
 V  V1  1  0.50000  0.50000  0.50000  1
