CIF file written using JARVIS-Tools package.
data_Li2O
_symmetry_space_group_name_H-M  'Fm-3m'
_cell_length_a       3.23991
_cell_length_b       3.23992
_cell_length_c       3.23992
_cell_angle_alpha    60.0014
_cell_angle_beta     60.0014
_cell_angle_gamma    60.0014

_symmetry_Int_Tables_number  225
_chemical_formula_structural  Li2O
_chemical_formula_sum  Li2O
_cell_volume  24.049127485131038
_cell_formula_units_Z  1
loop_
  _symmetry_equiv_pos_site_id
 _symmetry_equiv_pos_as_xyz
 1  'x, y, z'
loop_
 _atom_site_type_symbol
 _atom_site_label
 _atom_site_symmetry_multiplicity
 _atom_site_fract_x
 _atom_site_fract_y
 _atom_site_fract_z
 _atom_site_fract_occupancy
 Li  Li1  1  0.74999  0.74999  0.74999  1
 Li  Li2  1  0.25001  0.25001  0.25001  1
 O  O1  1  0.00000  0.00000  0.00000  1
