CIF file written using JARVIS-Tools package.
data_RbHF2
_symmetry_space_group_name_H-M  'I4/mcm'
_cell_length_a       5.48683
_cell_length_b       5.48683
_cell_length_c       5.48683
_cell_angle_alpha    98.1534
_cell_angle_beta     115.441
_cell_angle_gamma    115.378

_symmetry_Int_Tables_number  140
_chemical_formula_structural  RbHF2
_chemical_formula_sum  Rb2H2F4
_cell_volume  123.54825704001782
_cell_formula_units_Z  2
loop_
  _symmetry_equiv_pos_site_id
 _symmetry_equiv_pos_as_xyz
 1  'x, y, z'
loop_
 _atom_site_type_symbol
 _atom_site_label
 _atom_site_symmetry_multiplicity
 _atom_site_fract_x
 _atom_site_fract_y
 _atom_site_fract_z
 _atom_site_fract_occupancy
 F  F1  1  0.91680  0.27784  0.63897  1
 F  F2  1  0.63887  0.77784  0.86103  1
 F  F3  1  0.63867  0.49966  0.13901  1
 F  F4  1  0.36065  -0.00034  0.36099  1
 H  H1  1  0.63878  0.63876  0.00002  1
 H  H2  1  0.63874  0.13876  0.49998  1
 Rb  Rb1  1  0.13874  0.38874  0.25000  1
 Rb  Rb2  1  0.13874  0.88874  0.75000  1
