CIF file written using JARVIS-Tools package.
data_Li2BiO3
_symmetry_space_group_name_H-M  'C2/c'
_cell_length_a       5.76065
_cell_length_b       5.65587
_cell_length_c       10.2732
_cell_angle_alpha    86.0045
_cell_angle_beta     97.8638
_cell_angle_gamma    120.615

_symmetry_Int_Tables_number  15
_chemical_formula_structural  Li2BiO3
_chemical_formula_sum  Li8Bi4O2
_cell_volume  285.35204632292033
_cell_formula_units_Z  4
loop_
  _symmetry_equiv_pos_site_id
 _symmetry_equiv_pos_as_xyz
 1  'x, y, z'
loop_
 _atom_site_type_symbol
 _atom_site_label
 _atom_site_symmetry_multiplicity
 _atom_site_fract_x
 _atom_site_fract_y
 _atom_site_fract_z
 _atom_site_fract_occupancy
 Bi  Bi1  1  0.42694  0.85389  0.25000  1
 Bi  Bi2  1  0.24050  0.48100  0.75000  1
 Bi  Bi3  1  0.75950  0.51900  0.25000  1
 Bi  Bi4  1  0.57306  0.14611  0.75000  1
 Li  Li1  1  0.90851  0.19312  0.49488  1
 Li  Li2  1  0.90522  0.81044  0.75000  1
 Li  Li3  1  0.09149  0.80688  0.50512  1
 Li  Li4  1  0.71539  0.80688  0.99488  1
 Li  Li5  1  0.50000  0.50000  0.50000  1
 Li  Li6  1  0.09478  0.18956  0.25000  1
 Li  Li7  1  0.00000  0.50000  0.00000  1
 Li  Li8  1  0.28461  0.19312  0.00512  1
 O  O1  1  0.46637  0.22195  0.37106  1
 O  O2  1  0.80501  0.83775  0.37610  1
 O  O3  1  0.41684  0.50961  0.12792  1
 O  O4  1  0.58316  0.49039  0.87208  1
 O  O5  1  0.19499  0.16225  0.62390  1
 O  O6  1  0.09276  0.50961  0.37208  1
 O  O7  1  0.24442  0.77805  0.87106  1
 O  O8  1  0.03275  0.83775  0.12390  1
 O  O9  1  0.75558  0.22195  0.12894  1
 O  O10  1  0.90724  0.49039  0.62792  1
 O  O11  1  0.53363  0.77805  0.62894  1
 O  O12  1  0.96725  0.16225  0.87610  1
