CIF file written using JARVIS-Tools package.
data_Mn2O3F
_symmetry_space_group_name_H-M  'C2/m'
_cell_length_a       4.51016
_cell_length_b       9.55745
_cell_length_c       5.89241
_cell_angle_alpha    72.0455
_cell_angle_beta     90
_cell_angle_gamma    87.5331

_symmetry_Int_Tables_number  12
_chemical_formula_structural  Mn2O3F
_chemical_formula_sum  Mn8O2F4
_cell_volume  241.37985221144837
_cell_formula_units_Z  4
loop_
  _symmetry_equiv_pos_site_id
 _symmetry_equiv_pos_as_xyz
 1  'x, y, z'
loop_
 _atom_site_type_symbol
 _atom_site_label
 _atom_site_symmetry_multiplicity
 _atom_site_fract_x
 _atom_site_fract_y
 _atom_site_fract_z
 _atom_site_fract_occupancy
 F  F1  1  0.22421  0.10814  0.19593  1
 F  F2  1  0.77579  0.39186  0.55407  1
 F  F3  1  0.21129  0.60310  0.94845  1
 F  F4  1  0.78871  0.89690  0.80155  1
 Mn  Mn1  1  0.99891  0.50035  0.25572  1
 Mn  Mn2  1  0.00109  -0.00035  0.00607  1
 Mn  Mn3  1  0.47256  0.23580  0.63210  1
 Mn  Mn4  1  0.00109  -0.00035  0.49428  1
 Mn  Mn5  1  0.52744  0.26420  0.11790  1
 Mn  Mn6  1  0.50000  0.75000  0.37500  1
 Mn  Mn7  1  0.50000  0.75000  0.87500  1
 Mn  Mn8  1  0.99891  0.50035  0.74393  1
 O  O1  1  0.69506  0.65499  0.17341  1
 O  O2  1  0.80734  0.41036  0.04482  1
 O  O3  1  0.80718  0.90589  0.29705  1
 O  O4  1  0.69932  0.15499  0.92317  1
 O  O5  1  0.69506  0.65499  0.67160  1
 O  O6  1  0.30068  0.34501  0.82683  1
 O  O7  1  0.30494  0.84501  0.57659  1
 O  O8  1  0.30068  0.34501  0.32815  1
 O  O9  1  0.19282  0.59411  0.45295  1
 O  O10  1  0.19266  0.08964  0.70518  1
 O  O11  1  0.69932  0.15499  0.42185  1
 O  O12  1  0.30494  0.84501  0.07840  1
