CIF file written using JARVIS-Tools package.
data_K3UO2F5
_symmetry_space_group_name_H-M  'I4_1/a'
_cell_length_a       9.11216
_cell_length_b       9.11216
_cell_length_c       11.1006
_cell_angle_alpha    114.232
_cell_angle_beta     114.232
_cell_angle_gamma    90

_symmetry_Int_Tables_number  88
_chemical_formula_structural  K3UO2F5
_chemical_formula_sum  K2U4O8F20
_cell_volume  750.5429186294454
_cell_formula_units_Z  4
loop_
  _symmetry_equiv_pos_site_id
 _symmetry_equiv_pos_as_xyz
 1  'x, y, z'
loop_
 _atom_site_type_symbol
 _atom_site_label
 _atom_site_symmetry_multiplicity
 _atom_site_fract_x
 _atom_site_fract_y
 _atom_site_fract_z
 _atom_site_fract_occupancy
 F  F1  1  0.77256  0.85740  0.50600  1
 F  F2  1  0.12668  0.54510  0.71372  1
 F  F3  1  0.16863  0.62668  0.21372  1
 F  F4  1  0.04510  0.08704  0.21372  1
 F  F5  1  0.58704  0.66863  0.71372  1
 F  F6  1  0.26985  0.51985  0.53970  1
 F  F7  1  0.87332  0.45490  0.28628  1
 F  F8  1  0.95490  0.91296  0.78628  1
 F  F9  1  0.35140  0.72744  0.99400  1
 F  F10  1  0.26656  0.85140  0.49400  1
 F  F11  1  0.22744  0.14260  0.49400  1
 F  F12  1  0.64260  0.76656  0.99400  1
 F  F13  1  0.64860  0.27256  0.00600  1
 F  F14  1  0.73344  0.14860  0.50600  1
 F  F15  1  0.41296  0.33137  0.28628  1
 F  F16  1  0.35740  0.23344  0.00600  1
 F  F17  1  0.98015  0.23015  0.96030  1
 F  F18  1  0.73015  0.48015  0.46030  1
 F  F19  1  0.01985  0.76985  0.03970  1
 F  F20  1  0.83137  0.37332  0.78628  1
 K  K1  1  0.12500  0.37500  0.25000  1
 K  K2  1  0.50085  0.70003  0.47074  1
 K  K3  1  0.87500  0.62500  0.75000  1
 K  K4  1  0.62500  0.87500  0.25000  1
 K  K5  1  0.37500  0.12500  0.75000  1
 K  K6  1  0.22928  -0.00085  0.02926  1
 K  K7  1  0.03011  0.72928  0.52926  1
 K  K8  1  0.49915  0.29997  0.52926  1
 K  K9  1  0.79997  0.53011  0.02926  1
 K  K10  1  0.77072  0.00085  0.97074  1
 K  K11  1  0.96989  0.27072  0.47074  1
 K  K12  1  0.20003  0.46989  0.97074  1
 O  O1  1  0.55184  0.55028  0.20499  1
 O  O2  1  0.65315  0.15471  0.20499  1
 O  O3  1  0.05028  0.15315  0.70499  1
 O  O4  1  0.65471  0.05184  0.70499  1
 O  O5  1  0.44816  0.44972  0.79501  1
 O  O6  1  0.34529  0.94816  0.29501  1
 O  O7  1  0.34685  0.84529  0.79501  1
 O  O8  1  0.94972  0.84685  0.29501  1
 U  U1  1  0.39669  0.64669  0.79339  1
 U  U2  1  0.60331  0.35331  0.20661  1
 U  U3  1  0.85331  0.10331  0.70661  1
 U  U4  1  0.14669  0.89669  0.29339  1
