CIF file written using JARVIS-Tools package.
data_LiMn2F6
_symmetry_space_group_name_H-M  'Cm'
_cell_length_a       4.36007
_cell_length_b       5.21274
_cell_length_c       5.21298
_cell_angle_alpha    115.865
_cell_angle_beta     90.1876
_cell_angle_gamma    90.2005

_symmetry_Int_Tables_number  8
_chemical_formula_structural  LiMn2F6
_chemical_formula_sum  LiMn2F6
_cell_volume  106.60946561088464
_cell_formula_units_Z  1
loop_
  _symmetry_equiv_pos_site_id
 _symmetry_equiv_pos_as_xyz
 1  'x, y, z'
loop_
 _atom_site_type_symbol
 _atom_site_label
 _atom_site_symmetry_multiplicity
 _atom_site_fract_x
 _atom_site_fract_y
 _atom_site_fract_z
 _atom_site_fract_occupancy
 F  F1  1  0.26162  0.98956  0.32950  1
 F  F2  1  0.74917  0.01296  0.67392  1
 F  F3  1  0.26162  0.32899  -0.00983  1
 F  F4  1  0.73589  0.36117  0.36167  1
 F  F5  1  0.74919  0.67347  0.01349  1
 F  F6  1  0.27435  0.64243  0.64297  1
 Li  Li1  1  0.00656  -0.00035  0.00028  1
 Mn  Mn1  1  0.50530  0.32728  0.67608  1
 Mn  Mn2  1  0.50532  0.67553  0.32781  1
