CIF file written using JARVIS-Tools package.
data_LiMn7O3F9
_symmetry_space_group_name_H-M  'P1'
_cell_length_a       6.27012
_cell_length_b       6.32963
_cell_length_c       6.35622
_cell_angle_alpha    90.1439
_cell_angle_beta     89.7891
_cell_angle_gamma    89.6209

_symmetry_Int_Tables_number  1
_chemical_formula_structural  LiMn7O3F9
_chemical_formula_sum  LiMn7O3F9
_cell_volume  252.25517257316136
_cell_formula_units_Z  1
loop_
  _symmetry_equiv_pos_site_id
 _symmetry_equiv_pos_as_xyz
 1  'x, y, z'
loop_
 _atom_site_type_symbol
 _atom_site_label
 _atom_site_symmetry_multiplicity
 _atom_site_fract_x
 _atom_site_fract_y
 _atom_site_fract_z
 _atom_site_fract_occupancy
 F  F1  1  0.90439  0.71058  0.91972  1
 F  F2  1  0.60033  0.43889  0.81583  1
 F  F3  1  0.81878  0.41092  0.43144  1
 F  F4  1  0.28705  0.93389  0.87636  1
 F  F5  1  0.56909  0.80273  0.59103  1
 F  F6  1  0.42240  0.19054  0.45406  1
 F  F7  1  0.20667  0.56723  0.57185  1
 F  F8  1  0.44740  0.57961  0.20224  1
 F  F9  1  0.94109  0.09793  0.68571  1
 Li  Li1  1  0.51203  0.49173  0.51015  1
 Mn  Mn1  1  0.96102  0.43094  0.74961  1
 Mn  Mn2  1  0.56856  0.76594  0.95016  1
 Mn  Mn3  1  0.73842  0.03376  0.41868  1
 Mn  Mn4  1  0.98713  0.03515  0.03331  1
 Mn  Mn5  1  0.23659  0.92720  0.54689  1
 Mn  Mn6  1  0.43471  0.26180  0.05576  1
 Mn  Mn7  1  0.06130  0.56684  0.24190  1
 O  O1  1  0.11794  0.33493  0.02757  1
 O  O2  1  0.65868  0.04210  0.10053  1
 O  O3  1  0.02641  0.87728  0.31722  1
