CIF file written using JARVIS-Tools package.
data_Y2W2O9
_symmetry_space_group_name_H-M  'P-1'
_cell_length_a       6.6854
_cell_length_b       7.04358
_cell_length_c       7.35855
_cell_angle_alpha    70.9936
_cell_angle_beta     84.6081
_cell_angle_gamma    82.7111

_symmetry_Int_Tables_number  2
_chemical_formula_structural  Y2W2O9
_chemical_formula_sum  Y4W4O8
_cell_volume  324.45716150733614
_cell_formula_units_Z  2
loop_
  _symmetry_equiv_pos_site_id
 _symmetry_equiv_pos_as_xyz
 1  'x, y, z'
loop_
 _atom_site_type_symbol
 _atom_site_label
 _atom_site_symmetry_multiplicity
 _atom_site_fract_x
 _atom_site_fract_y
 _atom_site_fract_z
 _atom_site_fract_occupancy
 O  O1  1  0.68453  0.91155  0.54363  1
 O  O2  1  0.49281  0.24268  0.09288  1
 O  O3  1  0.85081  0.07056  0.21928  1
 O  O4  1  0.81646  0.43205  0.09014  1
 O  O5  1  0.32496  0.50562  0.25425  1
 O  O6  1  0.14919  0.92944  0.78072  1
 O  O7  1  0.26457  0.94153  0.15181  1
 O  O8  1  0.31547  0.08845  0.45637  1
 O  O9  1  0.96314  0.74148  0.13976  1
 O  O10  1  0.95701  0.30501  0.46714  1
 O  O11  1  0.04299  0.69499  0.53286  1
 O  O12  1  0.36905  0.35533  0.62536  1
 O  O13  1  0.50719  0.75732  0.90712  1
 O  O14  1  0.73543  0.05847  0.84819  1
 O  O15  1  0.03686  0.25852  0.86024  1
 O  O16  1  0.67504  0.49438  0.74575  1
 O  O17  1  0.18354  0.56795  0.90986  1
 O  O18  1  0.63095  0.64467  0.37464  1
 W  W1  1  0.72671  0.26496  0.94493  1
 W  W2  1  0.15921  0.20767  0.63383  1
 W  W3  1  0.84079  0.79233  0.36617  1
 W  W4  1  0.27329  0.73504  0.05507  1
 Y  Y1  1  0.85198  0.73757  0.84312  1
 Y  Y2  1  0.38415  0.71397  0.62066  1
 Y  Y3  1  0.61585  0.28603  0.37934  1
 Y  Y4  1  0.14802  0.26243  0.15688  1
