CIF file written using JARVIS-Tools package.
data_Mn3NiO8
_symmetry_space_group_name_H-M  'R-3m'
_cell_length_a       5.71049
_cell_length_b       5.71049
_cell_length_c       5.66742
_cell_angle_alpha    59.7482
_cell_angle_beta     59.7482
_cell_angle_gamma    60

_symmetry_Int_Tables_number  166
_chemical_formula_structural  Mn3NiO8
_chemical_formula_sum  Mn3NiO8
_cell_volume  130.18327663017607
_cell_formula_units_Z  1
loop_
  _symmetry_equiv_pos_site_id
 _symmetry_equiv_pos_as_xyz
 1  'x, y, z'
loop_
 _atom_site_type_symbol
 _atom_site_label
 _atom_site_symmetry_multiplicity
 _atom_site_fract_x
 _atom_site_fract_y
 _atom_site_fract_z
 _atom_site_fract_occupancy
 Mn  Mn1  1  0.50000  0.00000  0.50000  1
 Mn  Mn2  1  0.50000  0.50000  0.50000  1
 Mn  Mn3  1  0.00000  0.50000  0.50000  1
 Ni  Ni1  1  0.50000  0.50000  -0.00000  1
 O  O1  1  0.26456  0.26456  0.26232  1
 O  O2  1  0.70856  0.26456  0.26232  1
 O  O3  1  0.26456  0.70856  0.26232  1
 O  O4  1  0.26239  0.26239  0.71284  1
 O  O5  1  0.73761  0.73761  0.28716  1
 O  O6  1  0.73544  0.29144  0.73768  1
 O  O7  1  0.29144  0.73544  0.73768  1
 O  O8  1  0.73544  0.73544  0.73768  1
