CIF file written using JARVIS-Tools package.
data_P2PbXe3F18
_symmetry_space_group_name_H-M  'C2/m'
_cell_length_a       8.63483
_cell_length_b       8.63483
_cell_length_c       10.6693
_cell_angle_alpha    82.5359
_cell_angle_beta     82.5359
_cell_angle_gamma    88.3472

_symmetry_Int_Tables_number  12
_chemical_formula_structural  P2PbXe3F18
_chemical_formula_sum  P4Pb2Xe6F36
_cell_volume  782.0232290269513
_cell_formula_units_Z  2
loop_
  _symmetry_equiv_pos_site_id
 _symmetry_equiv_pos_as_xyz
 1  'x, y, z'
loop_
 _atom_site_type_symbol
 _atom_site_label
 _atom_site_symmetry_multiplicity
 _atom_site_fract_x
 _atom_site_fract_y
 _atom_site_fract_z
 _atom_site_fract_occupancy
 F  F1  1  0.91707  0.91707  0.18799  1
 F  F2  1  0.97618  0.62498  0.31229  1
 F  F3  1  0.61416  0.85613  0.05826  1
 F  F4  1  0.69305  0.69305  0.52377  1
 F  F5  1  0.97441  0.37913  0.13034  1
 F  F6  1  0.28746  0.28746  0.26429  1
 F  F7  1  0.85613  0.61416  0.05826  1
 F  F8  1  0.93569  0.66514  0.59934  1
 F  F9  1  0.38584  0.14387  0.94174  1
 F  F10  1  0.14387  0.38584  0.94174  1
 F  F11  1  0.62498  0.97618  0.31229  1
 F  F12  1  0.37502  0.02382  0.68771  1
 F  F13  1  0.59684  0.12684  0.05987  1
 F  F14  1  0.30695  0.30695  0.47623  1
 F  F15  1  0.53117  0.53117  0.18623  1
 F  F16  1  0.88328  0.88328  0.46356  1
 F  F17  1  0.02382  0.37502  0.68771  1
 F  F18  1  0.57135  0.27661  0.62554  1
 F  F19  1  0.46883  0.46883  0.81377  1
 F  F20  1  0.09624  0.09624  0.32166  1
 F  F21  1  0.40316  0.87316  0.94013  1
 F  F22  1  0.02559  0.62087  0.86966  1
 F  F23  1  0.08293  0.08293  0.81201  1
 F  F24  1  0.71254  0.71254  0.73571  1
 F  F25  1  0.37913  0.97441  0.13034  1
 F  F26  1  0.42865  0.72339  0.37446  1
 F  F27  1  0.66514  0.93569  0.59934  1
 F  F28  1  0.12684  0.59684  0.05987  1
 F  F29  1  0.62087  0.02559  0.86966  1
 F  F30  1  0.27661  0.57135  0.62554  1
 F  F31  1  0.72339  0.42865  0.37446  1
 F  F32  1  0.90376  0.90376  0.67834  1
 F  F33  1  0.33486  0.06431  0.40066  1
 F  F34  1  0.87316  0.40316  0.94013  1
 F  F35  1  0.06431  0.33486  0.40066  1
 F  F36  1  0.11672  0.11672  0.53644  1
 P  P1  1  0.00000  0.50000  0.00000  1
 P  P2  1  0.80187  0.80187  0.60372  1
 P  P3  1  0.50000  0.00000  0.00000  1
 P  P4  1  0.19813  0.19813  0.39628  1
 Pb  Pb1  1  0.71104  0.71104  0.28048  1
 Pb  Pb2  1  0.28896  0.28896  0.71952  1
 Xe  Xe1  1  0.00000  0.00000  0.00000  1
 Xe  Xe2  1  0.32151  0.79821  0.66192  1
 Xe  Xe3  1  0.20179  0.67849  0.33808  1
 Xe  Xe4  1  0.79821  0.32151  0.66192  1
 Xe  Xe5  1  0.50000  0.50000  -0.00000  1
 Xe  Xe6  1  0.67849  0.20179  0.33808  1
