CIF file written using JARVIS-Tools package.
data_Mn3O2F4
_symmetry_space_group_name_H-M  'P2_1'
_cell_length_a       5.69063
_cell_length_b       4.67154
_cell_length_c       7.90767
_cell_angle_alpha    90
_cell_angle_beta     92.5999
_cell_angle_gamma    90

_symmetry_Int_Tables_number  4
_chemical_formula_structural  Mn3O2F4
_chemical_formula_sum  Mn6O4F8
_cell_volume  210.00105630640863
_cell_formula_units_Z  2
loop_
  _symmetry_equiv_pos_site_id
 _symmetry_equiv_pos_as_xyz
 1  'x, y, z'
loop_
 _atom_site_type_symbol
 _atom_site_label
 _atom_site_symmetry_multiplicity
 _atom_site_fract_x
 _atom_site_fract_y
 _atom_site_fract_z
 _atom_site_fract_occupancy
 F  F1  1  0.78545  0.78982  0.74903  1
 F  F2  1  0.28679  0.70268  0.72805  1
 F  F3  1  0.21455  0.28982  0.25097  1
 F  F4  1  0.54449  0.30108  0.60299  1
 F  F5  1  0.88987  0.30024  0.95396  1
 F  F6  1  0.71321  0.20268  0.27195  1
 F  F7  1  0.11013  0.80024  0.04604  1
 F  F8  1  0.45551  0.80108  0.39701  1
 Mn  Mn1  1  0.57198  0.49613  0.85253  1
 Mn  Mn2  1  0.09960  0.03282  0.82440  1
 Mn  Mn3  1  0.42802  0.99613  0.14747  1
 Mn  Mn4  1  0.77344  0.98902  0.50209  1
 Mn  Mn5  1  0.90040  0.53282  0.17560  1
 Mn  Mn6  1  0.22656  0.48902  0.49791  1
 O  O1  1  0.38501  0.19439  0.93128  1
 O  O2  1  0.61499  0.69439  0.06872  1
 O  O3  1  0.95772  0.69382  0.39572  1
 O  O4  1  0.04228  0.19382  0.60428  1
