CIF file written using JARVIS-Tools package.
data_BiSbO4
_symmetry_space_group_name_H-M  'C2/c'
_cell_length_a       4.99108
_cell_length_b       5.52971
_cell_length_c       6.54247
_cell_angle_alpha    104.974
_cell_angle_beta     112.423
_cell_angle_gamma    89.9999

_symmetry_Int_Tables_number  15
_chemical_formula_structural  BiSbO4
_chemical_formula_sum  Bi2Sb2O8
_cell_volume  160.26221148984544
_cell_formula_units_Z  2
loop_
  _symmetry_equiv_pos_site_id
 _symmetry_equiv_pos_as_xyz
 1  'x, y, z'
loop_
 _atom_site_type_symbol
 _atom_site_label
 _atom_site_symmetry_multiplicity
 _atom_site_fract_x
 _atom_site_fract_y
 _atom_site_fract_z
 _atom_site_fract_occupancy
 Bi  Bi1  1  0.75390  0.25000  0.50000  1
 Bi  Bi2  1  0.24610  0.75000  0.50000  1
 O  O1  1  0.81019  0.53651  0.30853  1
 O  O2  1  0.00165  0.96349  0.69147  1
 O  O3  1  0.18981  0.46349  0.69147  1
 O  O4  1  0.99835  0.03651  0.30853  1
 O  O5  1  0.36540  0.82980  0.13141  1
 O  O6  1  0.73399  0.67020  0.86859  1
 O  O7  1  0.63460  0.17020  0.86859  1
 O  O8  1  0.26601  0.32980  0.13141  1
 Sb  Sb1  1  0.00000  0.00000  0.00000  1
 Sb  Sb2  1  0.50000  0.50000  0.00000  1
