CIF file written using JARVIS-Tools package.
data_CaPPt
_symmetry_space_group_name_H-M  'Pmc2_1'
_cell_length_a       4.31835
_cell_length_b       6.59157
_cell_length_c       8.40572
_cell_angle_alpha    90
_cell_angle_beta     90
_cell_angle_gamma    90

_symmetry_Int_Tables_number  26
_chemical_formula_structural  CaPPt
_chemical_formula_sum  Ca4P4Pt4
_cell_volume  239.26621134713068
_cell_formula_units_Z  4
loop_
  _symmetry_equiv_pos_site_id
 _symmetry_equiv_pos_as_xyz
 1  'x, y, z'
loop_
 _atom_site_type_symbol
 _atom_site_label
 _atom_site_symmetry_multiplicity
 _atom_site_fract_x
 _atom_site_fract_y
 _atom_site_fract_z
 _atom_site_fract_occupancy
 Ca  Ca1  1  0.00000  0.86455  0.12738  1
 Ca  Ca2  1  0.00000  0.93188  0.58522  1
 Ca  Ca3  1  0.00000  0.43188  0.41478  1
 Ca  Ca4  1  0.00000  0.36455  0.87262  1
 P  P1  1  0.50000  0.16929  0.07103  1
 P  P2  1  0.50000  0.74748  0.38357  1
 P  P3  1  0.50000  0.66929  0.92897  1
 P  P4  1  0.50000  0.24748  0.61643  1
 Pt  Pt1  1  0.50000  0.11648  0.34259  1
 Pt  Pt2  1  0.50000  0.49612  0.16945  1
 Pt  Pt3  1  0.50000  0.99612  0.83055  1
 Pt  Pt4  1  0.50000  0.61648  0.65741  1
