CIF file written using JARVIS-Tools package.
data_LiV3Te2O12
_symmetry_space_group_name_H-M  'P-1'
_cell_length_a       6.20667
_cell_length_b       7.11893
_cell_length_c       10.7107
_cell_angle_alpha    91.9727
_cell_angle_beta     93.0486
_cell_angle_gamma    105.062

_symmetry_Int_Tables_number  2
_chemical_formula_structural  LiV3Te2O12
_chemical_formula_sum  Li2V6Te4O24
_cell_volume  455.77108018644805
_cell_formula_units_Z  2
loop_
  _symmetry_equiv_pos_site_id
 _symmetry_equiv_pos_as_xyz
 1  'x, y, z'
loop_
 _atom_site_type_symbol
 _atom_site_label
 _atom_site_symmetry_multiplicity
 _atom_site_fract_x
 _atom_site_fract_y
 _atom_site_fract_z
 _atom_site_fract_occupancy
 Li  Li1  1  0.79438  0.75919  0.10740  1
 Li  Li2  1  0.20562  0.24081  0.89260  1
 O  O1  1  0.62134  0.12118  0.59266  1
 O  O2  1  0.82755  0.43844  0.75340  1
 O  O3  1  0.91088  0.10060  0.78662  1
 O  O4  1  0.20046  0.58835  0.57568  1
 O  O5  1  0.14804  0.94295  0.59515  1
 O  O6  1  0.85196  0.05705  0.40485  1
 O  O7  1  0.79954  0.41165  0.42432  1
 O  O8  1  0.17245  0.56156  0.24660  1
 O  O9  1  0.64163  0.73073  0.54185  1
 O  O10  1  0.70030  0.77536  0.93471  1
 O  O11  1  0.29970  0.22464  0.06529  1
 O  O12  1  0.37866  0.87882  0.40734  1
 O  O13  1  0.47811  0.83896  0.74577  1
 O  O14  1  0.08912  0.89940  0.21338  1
 O  O15  1  0.74162  0.46197  0.09105  1
 O  O16  1  0.62373  0.71915  0.26556  1
 O  O17  1  0.41491  0.83934  0.08328  1
 O  O18  1  0.85336  0.12235  0.11651  1
 O  O19  1  0.25838  0.53803  0.90895  1
 O  O20  1  0.52189  0.16104  0.25423  1
 O  O21  1  0.58509  0.16066  0.91672  1
 O  O22  1  0.37627  0.28085  0.73444  1
 O  O23  1  0.14664  0.87765  0.88349  1
 O  O24  1  0.35837  0.26927  0.45815  1
 Te  Te1  1  0.85958  0.81684  0.78589  1
 Te  Te2  1  0.16183  0.22331  0.59334  1
 Te  Te3  1  0.14042  0.18316  0.21411  1
 Te  Te4  1  0.83817  0.77669  0.40666  1
 V  V1  1  0.33814  0.78068  0.24846  1
 V  V2  1  0.62012  0.19714  0.41757  1
 V  V3  1  0.66186  0.21932  0.75154  1
 V  V4  1  0.37989  0.76931  0.92055  1
 V  V5  1  0.62011  0.23069  0.07945  1
 V  V6  1  0.37988  0.80286  0.58243  1
