CIF file written using JARVIS-Tools package.
data_LiMn3CrO8
_symmetry_space_group_name_H-M  'R3m'
_cell_length_a       5.80234
_cell_length_b       5.80234
_cell_length_c       5.80234
_cell_angle_alpha    59.2764
_cell_angle_beta     59.2764
_cell_angle_gamma    59.2764

_symmetry_Int_Tables_number  160
_chemical_formula_structural  LiMn3CrO8
_chemical_formula_sum  LiMn3CrO8
_cell_volume  135.85527892730303
_cell_formula_units_Z  1
loop_
  _symmetry_equiv_pos_site_id
 _symmetry_equiv_pos_as_xyz
 1  'x, y, z'
loop_
 _atom_site_type_symbol
 _atom_site_label
 _atom_site_symmetry_multiplicity
 _atom_site_fract_x
 _atom_site_fract_y
 _atom_site_fract_z
 _atom_site_fract_occupancy
 Cr  Cr1  1  0.49920  0.49920  0.49920  1
 Li  Li1  1  0.87605  0.87605  0.87605  1
 Mn  Mn1  1  0.49896  0.00331  0.49896  1
 Mn  Mn2  1  0.49896  0.49896  0.00331  1
 Mn  Mn3  1  0.00331  0.49896  0.49896  1
 O  O1  1  0.26420  0.26420  0.26420  1
 O  O2  1  0.70653  0.26097  0.26097  1
 O  O3  1  0.26097  0.70653  0.26097  1
 O  O4  1  0.26097  0.26097  0.70653  1
 O  O5  1  0.73967  0.28932  0.73967  1
 O  O6  1  0.73967  0.73967  0.28932  1
 O  O7  1  0.28932  0.73967  0.73967  1
 O  O8  1  0.73721  0.73721  0.73721  1
