CIF file written using JARVIS-Tools package.
data_BaHIO
_symmetry_space_group_name_H-M  'Pnma'
_cell_length_a       8.00958
_cell_length_b       4.50894
_cell_length_c       11.1159
_cell_angle_alpha    90
_cell_angle_beta     90
_cell_angle_gamma    90

_symmetry_Int_Tables_number  62
_chemical_formula_structural  BaHIO
_chemical_formula_sum  Ba4H4I4O4
_cell_volume  401.4460194446059
_cell_formula_units_Z  4
loop_
  _symmetry_equiv_pos_site_id
 _symmetry_equiv_pos_as_xyz
 1  'x, y, z'
loop_
 _atom_site_type_symbol
 _atom_site_label
 _atom_site_symmetry_multiplicity
 _atom_site_fract_x
 _atom_site_fract_y
 _atom_site_fract_z
 _atom_site_fract_occupancy
 Ba  Ba1  1  0.68889  0.25000  0.41705  1
 Ba  Ba2  1  0.18889  0.25000  0.08295  1
 Ba  Ba3  1  0.31111  0.75000  0.58295  1
 Ba  Ba4  1  0.81111  0.75000  0.91705  1
 H  H1  1  0.78048  0.25000  0.10006  1
 H  H2  1  0.28048  0.25000  0.39994  1
 H  H3  1  0.21952  0.75000  0.89994  1
 H  H4  1  0.71952  0.75000  0.60006  1
 I  I1  1  0.53178  0.75000  0.17981  1
 I  I2  1  0.03178  0.75000  0.32019  1
 I  I3  1  0.46822  0.25000  0.82019  1
 I  I4  1  0.96822  0.25000  0.67981  1
 O  O1  1  0.86527  0.25000  0.03676  1
 O  O2  1  0.36527  0.25000  0.46324  1
 O  O3  1  0.13473  0.75000  0.96324  1
 O  O4  1  0.63473  0.75000  0.53676  1
