CIF file written using JARVIS-Tools package.
data_ZnH4Cl2O6
_symmetry_space_group_name_H-M  'P2_1/c'
_cell_length_a       6.42501
_cell_length_b       6.82577
_cell_length_c       6.37908
_cell_angle_alpha    90
_cell_angle_beta     95.7142
_cell_angle_gamma    90

_symmetry_Int_Tables_number  14
_chemical_formula_structural  ZnH4Cl2O6
_chemical_formula_sum  Zn2H8Cl4O2
_cell_volume  278.36876820056517
_cell_formula_units_Z  2
loop_
  _symmetry_equiv_pos_site_id
 _symmetry_equiv_pos_as_xyz
 1  'x, y, z'
loop_
 _atom_site_type_symbol
 _atom_site_label
 _atom_site_symmetry_multiplicity
 _atom_site_fract_x
 _atom_site_fract_y
 _atom_site_fract_z
 _atom_site_fract_occupancy
 Cl  Cl1  1  0.26309  0.60529  0.91565  1
 Cl  Cl2  1  0.76309  0.89471  0.41565  1
 Cl  Cl3  1  0.73691  0.39471  0.08435  1
 Cl  Cl4  1  0.23691  0.10529  0.58435  1
 H  H1  1  0.39180  0.14734  0.12936  1
 H  H2  1  0.60820  0.85266  0.87064  1
 H  H3  1  0.89180  0.35266  0.62936  1
 H  H4  1  0.10615  0.41881  0.31064  1
 H  H5  1  0.60615  0.08119  0.81064  1
 H  H6  1  0.89385  0.58119  0.68936  1
 H  H7  1  0.39385  0.91881  0.18936  1
 H  H8  1  0.10820  0.64734  0.37064  1
 O  O1  1  0.45163  0.66046  0.78277  1
 O  O2  1  0.04837  0.16046  0.71723  1
 O  O3  1  0.19014  0.52298  0.39110  1
 O  O4  1  0.54837  0.33954  0.21723  1
 O  O5  1  0.95163  0.83954  0.28277  1
 O  O6  1  0.44268  0.22921  0.65757  1
 O  O7  1  0.30986  0.02298  0.10890  1
 O  O8  1  0.55732  0.77079  0.34243  1
 O  O9  1  0.05732  0.72921  0.84243  1
 O  O10  1  0.80986  0.47702  0.60890  1
 O  O11  1  0.69014  0.97702  0.89110  1
 O  O12  1  0.94268  0.27079  0.15757  1
 Zn  Zn1  1  0.00000  0.00000  0.00000  1
 Zn  Zn2  1  0.50000  0.50000  0.50000  1
