CIF file written using JARVIS-Tools package.
data_BiOF
_symmetry_space_group_name_H-M  'Pnma'
_cell_length_a       3.96232
_cell_length_b       5.87264
_cell_length_c       8.18536
_cell_angle_alpha    90
_cell_angle_beta     90
_cell_angle_gamma    90

_symmetry_Int_Tables_number  62
_chemical_formula_structural  BiOF
_chemical_formula_sum  Bi4O4F4
_cell_volume  190.46734585064806
_cell_formula_units_Z  4
loop_
  _symmetry_equiv_pos_site_id
 _symmetry_equiv_pos_as_xyz
 1  'x, y, z'
loop_
 _atom_site_type_symbol
 _atom_site_label
 _atom_site_symmetry_multiplicity
 _atom_site_fract_x
 _atom_site_fract_y
 _atom_site_fract_z
 _atom_site_fract_occupancy
 Bi  Bi1  1  0.25000  0.29013  0.11315  1
 Bi  Bi2  1  0.75000  0.79013  0.38685  1
 Bi  Bi3  1  0.25000  0.20987  0.61315  1
 Bi  Bi4  1  0.75000  0.70987  0.88685  1
 F  F1  1  0.75000  0.98065  0.12395  1
 F  F2  1  0.25000  0.48065  0.37605  1
 F  F3  1  0.75000  0.51935  0.62395  1
 F  F4  1  0.25000  0.01935  0.87605  1
 O  O1  1  0.75000  0.49087  0.11672  1
 O  O2  1  0.25000  0.99087  0.38328  1
 O  O3  1  0.75000  0.00913  0.61672  1
 O  O4  1  0.25000  0.50913  0.88328  1
