CIF file written using JARVIS-Tools package.
data_TbLiSn2
_symmetry_space_group_name_H-M  'Cmcm'
_cell_length_a       4.41479
_cell_length_b       4.47836
_cell_length_c       9.6972
_cell_angle_alpha    90
_cell_angle_beta     103.158
_cell_angle_gamma    90

_symmetry_Int_Tables_number  63
_chemical_formula_structural  TbLiSn2
_chemical_formula_sum  Tb2Li2Sn4
_cell_volume  186.6901274257682
_cell_formula_units_Z  2
loop_
  _symmetry_equiv_pos_site_id
 _symmetry_equiv_pos_as_xyz
 1  'x, y, z'
loop_
 _atom_site_type_symbol
 _atom_site_label
 _atom_site_symmetry_multiplicity
 _atom_site_fract_x
 _atom_site_fract_y
 _atom_site_fract_z
 _atom_site_fract_occupancy
 Li  Li1  1  0.67510  0.75000  0.35019  1
 Li  Li2  1  0.32490  0.25000  0.64981  1
 Sn  Sn1  1  0.54554  0.75000  0.09108  1
 Sn  Sn2  1  0.45446  0.25000  0.90892  1
 Sn  Sn3  1  0.25105  0.75000  0.50211  1
 Sn  Sn4  1  0.74895  0.25000  0.49789  1
 Tb  Tb1  1  0.89245  0.75000  0.78490  1
 Tb  Tb2  1  0.10755  0.25000  0.21510  1
