CIF file written using JARVIS-Tools package.
data_Na3CoSiCO7
_symmetry_space_group_name_H-M  'P2_1/m'
_cell_length_a       5.13177
_cell_length_b       6.29577
_cell_length_c       9.19772
_cell_angle_alpha    90
_cell_angle_beta     89.9076
_cell_angle_gamma    90

_symmetry_Int_Tables_number  11
_chemical_formula_structural  Na3CoSiCO7
_chemical_formula_sum  Na6Co2Si2C2O4
_cell_volume  297.1635291645812
_cell_formula_units_Z  2
loop_
  _symmetry_equiv_pos_site_id
 _symmetry_equiv_pos_as_xyz
 1  'x, y, z'
loop_
 _atom_site_type_symbol
 _atom_site_label
 _atom_site_symmetry_multiplicity
 _atom_site_fract_x
 _atom_site_fract_y
 _atom_site_fract_z
 _atom_site_fract_occupancy
 C  C1  1  0.27747  0.25000  0.05877  1
 C  C2  1  0.72253  0.75000  0.94123  1
 Co  Co1  1  0.21150  0.25000  0.35279  1
 Co  Co2  1  0.78850  0.75000  0.64721  1
 Na  Na1  1  0.23147  0.75000  0.09927  1
 Na  Na2  1  0.74792  -0.00122  0.25868  1
 Na  Na3  1  0.74792  0.50122  0.25868  1
 Na  Na4  1  0.25208  0.49878  0.74132  1
 Na  Na5  1  0.25208  0.00122  0.74132  1
 Na  Na6  1  0.76853  0.25000  0.90073  1
 O  O1  1  0.25848  0.54541  0.32057  1
 O  O2  1  0.25848  0.95459  0.32057  1
 O  O3  1  0.91925  0.75000  0.84928  1
 O  O4  1  0.08075  0.25000  0.15072  1
 O  O5  1  0.77598  0.75000  0.07861  1
 O  O6  1  0.51206  0.25000  0.10583  1
 O  O7  1  0.84245  0.25000  0.41917  1
 O  O8  1  0.48794  0.75000  0.89417  1
 O  O9  1  0.35986  0.25000  0.54129  1
 O  O10  1  0.74152  0.45459  0.67943  1
 O  O11  1  0.74152  0.04541  0.67943  1
 O  O12  1  0.64014  0.75000  0.45871  1
 O  O13  1  0.15755  0.75000  0.58083  1
 O  O14  1  0.22402  0.25000  0.92139  1
 Si  Si1  1  0.32029  0.75000  0.43010  1
 Si  Si2  1  0.67971  0.25000  0.56990  1
