CIF file written using JARVIS-Tools package.
data_CaCo2O4
_symmetry_space_group_name_H-M  'Imma'
_cell_length_a       6.04997
_cell_length_b       6.04997
_cell_length_c       5.9948
_cell_angle_alpha    60.3012
_cell_angle_beta     60.3012
_cell_angle_gamma    60.3541

_symmetry_Int_Tables_number  74
_chemical_formula_structural  CaCo2O4
_chemical_formula_sum  Ca2Co4O8
_cell_volume  156.27444811857453
_cell_formula_units_Z  2
loop_
  _symmetry_equiv_pos_site_id
 _symmetry_equiv_pos_as_xyz
 1  'x, y, z'
loop_
 _atom_site_type_symbol
 _atom_site_label
 _atom_site_symmetry_multiplicity
 _atom_site_fract_x
 _atom_site_fract_y
 _atom_site_fract_z
 _atom_site_fract_occupancy
 Ca  Ca1  1  0.12500  0.62500  0.62500  1
 Ca  Ca2  1  0.62500  0.12500  0.62500  1
 Co  Co1  1  0.98934  0.98934  0.01066  1
 Co  Co2  1  0.26066  0.26066  0.23934  1
 Co  Co3  1  0.62500  0.62500  0.12500  1
 Co  Co4  1  0.62500  0.62500  0.62500  1
 O  O1  1  0.40149  0.40149  0.33164  1
 O  O2  1  0.41640  0.86013  0.36173  1
 O  O3  1  0.40149  0.40149  0.86538  1
 O  O4  1  0.86013  0.41640  0.36173  1
 O  O5  1  0.38987  0.83360  0.88827  1
 O  O6  1  0.83360  0.38987  0.88827  1
 O  O7  1  0.84851  0.84851  0.38462  1
 O  O8  1  0.84851  0.84851  0.91836  1
