CIF file written using JARVIS-Tools package.
data_LiMn3Ni2O8
_symmetry_space_group_name_H-M  'Imm2'
_cell_length_a       5.70782
_cell_length_b       5.79526
_cell_length_c       5.79526
_cell_angle_alpha    59.5045
_cell_angle_beta     60.4979
_cell_angle_gamma    60.4979

_symmetry_Int_Tables_number  44
_chemical_formula_structural  LiMn3Ni2O8
_chemical_formula_sum  LiMn3Ni2O8
_cell_volume  136.03541689448252
_cell_formula_units_Z  1
loop_
  _symmetry_equiv_pos_site_id
 _symmetry_equiv_pos_as_xyz
 1  'x, y, z'
loop_
 _atom_site_type_symbol
 _atom_site_label
 _atom_site_symmetry_multiplicity
 _atom_site_fract_x
 _atom_site_fract_y
 _atom_site_fract_z
 _atom_site_fract_occupancy
 Li  Li1  1  0.88179  0.86821  0.86821  1
 Mn  Mn1  1  0.11699  0.13301  0.13301  1
 Mn  Mn2  1  0.99096  0.50409  0.50409  1
 Mn  Mn3  1  0.50085  0.50409  0.50409  1
 Ni  Ni1  1  0.49986  0.50098  -0.00071  1
 Ni  Ni2  1  0.49986  -0.00071  0.50098  1
 O  O1  1  0.24506  0.26171  0.26171  1
 O  O2  1  0.73152  0.26171  0.26171  1
 O  O3  1  0.24700  0.74241  0.26359  1
 O  O4  1  0.24700  0.26359  0.74241  1
 O  O5  1  0.74849  0.72475  0.27828  1
 O  O6  1  0.74849  0.27828  0.72475  1
 O  O7  1  0.75448  0.72893  0.72893  1
 O  O8  1  0.28766  0.72893  0.72893  1
