CIF file written using JARVIS-Tools package.
data_Sr2UMnO6
_symmetry_space_group_name_H-M  'P2_1/c'
_cell_length_a       5.90326
_cell_length_b       5.85079
_cell_length_c       8.16912
_cell_angle_alpha    89.9632
_cell_angle_beta     90
_cell_angle_gamma    90

_symmetry_Int_Tables_number  14
_chemical_formula_structural  Sr2UMnO6
_chemical_formula_sum  Sr4U2Mn2O2
_cell_volume  282.1509486322738
_cell_formula_units_Z  2
loop_
  _symmetry_equiv_pos_site_id
 _symmetry_equiv_pos_as_xyz
 1  'x, y, z'
loop_
 _atom_site_type_symbol
 _atom_site_label
 _atom_site_symmetry_multiplicity
 _atom_site_fract_x
 _atom_site_fract_y
 _atom_site_fract_z
 _atom_site_fract_occupancy
 Mn  Mn1  1  0.00000  0.50000  -0.00000  1
 Mn  Mn2  1  0.50000  0.00000  0.50000  1
 O  O1  1  0.70852  0.28745  0.96054  1
 O  O2  1  0.20852  0.21255  0.53946  1
 O  O3  1  0.78665  0.79093  0.04118  1
 O  O4  1  0.02036  0.57695  0.75458  1
 O  O5  1  0.52036  0.92305  0.74542  1
 O  O6  1  0.29148  0.71255  0.03946  1
 O  O7  1  0.71335  0.29093  0.54118  1
 O  O8  1  0.21335  0.20907  0.95882  1
 O  O9  1  0.47964  0.07695  0.25458  1
 O  O10  1  0.28665  0.70907  0.45882  1
 O  O11  1  0.97964  0.42305  0.24542  1
 O  O12  1  0.79148  0.78745  0.46054  1
 Sr  Sr1  1  0.03661  0.99386  0.25077  1
 Sr  Sr2  1  0.46339  0.49386  0.75077  1
 Sr  Sr3  1  0.96339  0.00614  0.74923  1
 Sr  Sr4  1  0.53661  0.50614  0.24923  1
 U  U1  1  0.50000  0.00000  0.00000  1
 U  U2  1  0.00000  0.50000  0.50000  1
