CIF file written using JARVIS-Tools package.
data_Sm3TaO7
_symmetry_space_group_name_H-M  'C222_1'
_cell_length_a       6.60773
_cell_length_b       6.60773
_cell_length_c       7.61176
_cell_angle_alpha    90
_cell_angle_beta     90
_cell_angle_gamma    108.956

_symmetry_Int_Tables_number  20
_chemical_formula_structural  Sm3TaO7
_chemical_formula_sum  Sm6Ta2O4
_cell_volume  314.32247131263284
_cell_formula_units_Z  2
loop_
  _symmetry_equiv_pos_site_id
 _symmetry_equiv_pos_as_xyz
 1  'x, y, z'
loop_
 _atom_site_type_symbol
 _atom_site_label
 _atom_site_symmetry_multiplicity
 _atom_site_fract_x
 _atom_site_fract_y
 _atom_site_fract_z
 _atom_site_fract_occupancy
 O  O1  1  0.62951  0.37049  0.00000  1
 O  O2  1  0.06267  0.93733  0.00000  1
 O  O3  1  0.36274  0.63726  0.00000  1
 O  O4  1  0.63726  0.36274  0.50000  1
 O  O5  1  0.69500  0.94834  0.79110  1
 O  O6  1  0.37049  0.62951  0.50000  1
 O  O7  1  0.05166  0.30500  0.20890  1
 O  O8  1  0.08007  0.32328  0.77370  1
 O  O9  1  0.32328  0.08007  0.72630  1
 O  O10  1  0.91993  0.67672  0.27370  1
 O  O11  1  0.93733  0.06267  0.50000  1
 O  O12  1  0.94834  0.69500  0.70890  1
 O  O13  1  0.30500  0.05166  0.29110  1
 O  O14  1  0.67672  0.91993  0.22630  1
 Sm  Sm1  1  0.46381  0.00116  0.00838  1
 Sm  Sm2  1  0.99884  0.53619  0.99162  1
 Sm  Sm3  1  0.53095  0.53095  0.25000  1
 Sm  Sm4  1  0.46905  0.46905  0.75000  1
 Sm  Sm5  1  0.53619  0.99884  0.50838  1
 Sm  Sm6  1  0.00116  0.46381  0.49162  1
 Ta  Ta1  1  0.99850  0.99850  0.75000  1
 Ta  Ta2  1  0.00150  0.00150  0.25000  1
