CIF file written using JARVIS-Tools package.
data_Cr2Hg2H2O9
_symmetry_space_group_name_H-M  'C2/c'
_cell_length_a       6.55483
_cell_length_b       6.55483
_cell_length_c       14.8825
_cell_angle_alpha    61.5545
_cell_angle_beta     118.445
_cell_angle_gamma    133.175

_symmetry_Int_Tables_number  15
_chemical_formula_structural  Cr2Hg2H2O9
_chemical_formula_sum  Cr4Hg4H4O8
_cell_volume  398.58125795695634
_cell_formula_units_Z  2
loop_
  _symmetry_equiv_pos_site_id
 _symmetry_equiv_pos_as_xyz
 1  'x, y, z'
loop_
 _atom_site_type_symbol
 _atom_site_label
 _atom_site_symmetry_multiplicity
 _atom_site_fract_x
 _atom_site_fract_y
 _atom_site_fract_z
 _atom_site_fract_occupancy
 Cr  Cr1  1  0.75823  0.35715  0.59908  1
 Cr  Cr2  1  0.35715  0.75823  0.90092  1
 Cr  Cr3  1  0.24177  0.64285  0.40092  1
 Cr  Cr4  1  0.64285  0.24177  0.09908  1
 H  H1  1  0.55681  0.40803  0.79075  1
 H  H2  1  0.40803  0.55681  0.70925  1
 H  H3  1  0.59197  0.44319  0.29075  1
 H  H4  1  0.44319  0.59197  0.20925  1
 Hg  Hg1  1  0.03114  0.02743  0.37522  1
 Hg  Hg2  1  0.97257  0.96886  0.87522  1
 Hg  Hg3  1  0.96886  0.97257  0.62478  1
 Hg  Hg4  1  0.02743  0.03114  0.12478  1
 O  O1  1  0.45739  0.79220  0.32982  1
 O  O2  1  0.98211  0.24977  0.66380  1
 O  O3  1  0.24977  0.98211  0.83620  1
 O  O4  1  0.59902  0.59902  0.75000  1
 O  O5  1  0.75023  0.01789  0.16380  1
 O  O6  1  0.54261  0.20780  0.67018  1
 O  O7  1  0.20780  0.54261  0.82982  1
 O  O8  1  0.01789  0.75023  0.33620  1
 O  O9  1  0.27033  0.57332  0.01321  1
 O  O10  1  0.72531  0.96912  0.92548  1
 O  O11  1  0.03088  0.27469  0.42548  1
 O  O12  1  0.27469  0.03088  0.07452  1
 O  O13  1  0.57332  0.27033  0.48679  1
 O  O14  1  0.79220  0.45739  0.17018  1
 O  O15  1  0.42668  0.72967  0.51321  1
 O  O16  1  0.72967  0.42668  0.98679  1
 O  O17  1  0.96912  0.72531  0.57452  1
 O  O18  1  0.40098  0.40098  0.25000  1
