CIF file written using JARVIS-Tools package.
data_Li2Ti3FeO8
_symmetry_space_group_name_H-M  'R3m'
_cell_length_a       5.90073
_cell_length_b       5.90073
_cell_length_c       5.90073
_cell_angle_alpha    60.6013
_cell_angle_beta     60.6013
_cell_angle_gamma    60.6013

_symmetry_Int_Tables_number  160
_chemical_formula_structural  Li2Ti3FeO8
_chemical_formula_sum  Li2Ti3FeO8
_cell_volume  147.2512992431316
_cell_formula_units_Z  1
loop_
  _symmetry_equiv_pos_site_id
 _symmetry_equiv_pos_as_xyz
 1  'x, y, z'
loop_
 _atom_site_type_symbol
 _atom_site_label
 _atom_site_symmetry_multiplicity
 _atom_site_fract_x
 _atom_site_fract_y
 _atom_site_fract_z
 _atom_site_fract_occupancy
 Fe  Fe1  1  0.88235  0.88235  0.88235  1
 Li  Li1  1  0.11991  0.11991  0.11991  1
 Li  Li2  1  0.50003  0.50003  0.50003  1
 O  O1  1  0.25901  0.25901  0.25901  1
 O  O2  1  0.71269  0.25153  0.25153  1
 O  O3  1  0.25153  0.71269  0.25153  1
 O  O4  1  0.25153  0.25153  0.71269  1
 O  O5  1  0.74652  0.74652  0.28148  1
 O  O6  1  0.74652  0.28148  0.74652  1
 O  O7  1  0.28148  0.74652  0.74652  1
 O  O8  1  0.74322  0.74322  0.74322  1
 Ti  Ti1  1  0.49843  0.00832  0.49843  1
 Ti  Ti2  1  0.49843  0.49843  0.00832  1
 Ti  Ti3  1  0.00832  0.49843  0.49843  1
