CIF file written using JARVIS-Tools package.
data_La3Ga4Cl
_symmetry_space_group_name_H-M  'I4/mcm'
_cell_length_a       8.12907
_cell_length_b       8.12907
_cell_length_c       8.12907
_cell_angle_alpha    91.0863
_cell_angle_beta     119.375
_cell_angle_gamma    119.375

_symmetry_Int_Tables_number  140
_chemical_formula_structural  La3Ga4Cl
_chemical_formula_sum  La6Ga8Cl2
_cell_volume  383.36090690478903
_cell_formula_units_Z  2
loop_
  _symmetry_equiv_pos_site_id
 _symmetry_equiv_pos_as_xyz
 1  'x, y, z'
loop_
 _atom_site_type_symbol
 _atom_site_label
 _atom_site_symmetry_multiplicity
 _atom_site_fract_x
 _atom_site_fract_y
 _atom_site_fract_z
 _atom_site_fract_occupancy
 Cl  Cl1  1  0.00000  0.00000  0.00000  1
 Cl  Cl2  1  0.00000  0.50000  0.50000  1
 Ga  Ga1  1  0.78606  0.44569  0.94569  1
 Ga  Ga2  1  0.50000  0.34037  0.55431  1
 Ga  Ga3  1  0.78606  0.84037  0.34037  1
 Ga  Ga4  1  0.50000  0.94569  0.15963  1
 Ga  Ga5  1  0.50000  0.05431  0.84037  1
 Ga  Ga6  1  0.21394  0.55431  0.05431  1
 Ga  Ga7  1  0.50000  0.65963  0.44569  1
 Ga  Ga8  1  0.21394  0.15963  0.65963  1
 La  La1  1  0.82127  0.16063  0.66063  1
 La  La2  1  0.50000  0.66063  0.83937  1
 La  La3  1  0.50000  0.33937  0.16063  1
 La  La4  1  0.00000  0.25000  0.25000  1
 La  La5  1  0.17873  0.83937  0.33937  1
 La  La6  1  0.00000  0.75000  0.75000  1
