CIF file written using JARVIS-Tools package.
data_V3O4F2
_symmetry_space_group_name_H-M  'Pnnm'
_cell_length_a       4.62766
_cell_length_b       2.98256
_cell_length_c       13.8843
_cell_angle_alpha    90
_cell_angle_beta     90.0003
_cell_angle_gamma    90

_symmetry_Int_Tables_number  58
_chemical_formula_structural  V3O4F2
_chemical_formula_sum  V6O8F4
_cell_volume  191.63458767998966
_cell_formula_units_Z  2
loop_
  _symmetry_equiv_pos_site_id
 _symmetry_equiv_pos_as_xyz
 1  'x, y, z'
loop_
 _atom_site_type_symbol
 _atom_site_label
 _atom_site_symmetry_multiplicity
 _atom_site_fract_x
 _atom_site_fract_y
 _atom_site_fract_z
 _atom_site_fract_occupancy
 F  F1  1  0.18287  0.50000  0.73171  1
 F  F2  1  0.81716  0.50000  0.93496  1
 F  F3  1  0.31713  0.00000  0.23171  1
 F  F4  1  0.68284  0.00000  0.43496  1
 O  O1  1  0.73556  0.00000  0.09876  1
 O  O2  1  0.80805  0.50000  0.26730  1
 O  O3  1  0.76445  0.50000  0.59876  1
 O  O4  1  0.69194  0.00000  0.76729  1
 O  O5  1  0.26445  0.00000  0.56790  1
 O  O6  1  0.30807  0.00000  0.89937  1
 O  O7  1  0.19193  0.50000  0.39937  1
 O  O8  1  0.23555  0.50000  0.06791  1
 V  V1  1  0.50001  0.50000  0.83333  1
 V  V2  1  0.44174  0.50000  0.50762  1
 V  V3  1  0.55825  0.50000  0.15905  1
 V  V4  1  0.94175  0.00000  0.65905  1
 V  V5  1  -0.00001  0.00000  0.33333  1
 V  V6  1  0.05826  0.00000  0.00762  1
