CIF file written using JARVIS-Tools package.
data_MgBi4O8
_symmetry_space_group_name_H-M  'Cm'
_cell_length_a       3.44786
_cell_length_b       6.91526
_cell_length_c       9.52912
_cell_angle_alpha    100.714
_cell_angle_beta     100.422
_cell_angle_gamma    104.435

_symmetry_Int_Tables_number  8
_chemical_formula_structural  MgBi4O8
_chemical_formula_sum  MgBi4O8
_cell_volume  209.9375175162501
_cell_formula_units_Z  1
loop_
  _symmetry_equiv_pos_site_id
 _symmetry_equiv_pos_as_xyz
 1  'x, y, z'
loop_
 _atom_site_type_symbol
 _atom_site_label
 _atom_site_symmetry_multiplicity
 _atom_site_fract_x
 _atom_site_fract_y
 _atom_site_fract_z
 _atom_site_fract_occupancy
 Bi  Bi1  1  0.26319  0.64153  0.88472  1
 Bi  Bi2  1  0.32779  0.20729  0.44816  1
 Bi  Bi3  1  0.67870  0.79746  0.55980  1
 Bi  Bi4  1  0.80121  0.42869  0.17361  1
 Mg  Mg1  1  0.49759  0.20199  0.79304  1
 O  O1  1  0.42282  0.52611  0.31942  1
 O  O2  1  0.32986  0.88513  0.77447  1
 O  O3  1  0.72724  0.16544  0.28889  1
 O  O4  1  0.62009  0.49753  0.74252  1
 O  O5  1  0.88318  0.73146  0.03480  1
 O  O6  1  0.88623  0.13322  0.63911  1
 O  O7  1  0.13902  0.34003  0.93788  1
 O  O8  1  0.15119  0.87477  0.42748  1
