CIF file written using JARVIS-Tools package.
data_Li3Fe2OF5
_symmetry_space_group_name_H-M  'F222'
_cell_length_a       5.08904
_cell_length_b       5.0891
_cell_length_c       9.35458
_cell_angle_alpha    100.76
_cell_angle_beta     100.773
_cell_angle_gamma    108.252

_symmetry_Int_Tables_number  22
_chemical_formula_structural  Li3Fe2OF5
_chemical_formula_sum  Li6Fe4O2F0
_cell_volume  218.0789775817261
_cell_formula_units_Z  2
loop_
  _symmetry_equiv_pos_site_id
 _symmetry_equiv_pos_as_xyz
 1  'x, y, z'
loop_
 _atom_site_type_symbol
 _atom_site_label
 _atom_site_symmetry_multiplicity
 _atom_site_fract_x
 _atom_site_fract_y
 _atom_site_fract_z
 _atom_site_fract_occupancy
 F  F1  1  0.96699  0.69770  0.91264  1
 F  F2  1  0.44572  0.21481  0.91270  1
 F  F3  1  0.28250  0.05085  0.58336  1
 F  F4  1  0.24184  0.45302  0.41876  1
 F  F5  1  0.36756  0.65644  0.74788  1
 F  F6  1  0.67679  0.96578  0.41877  1
 F  F7  1  0.88035  0.09142  0.74792  1
 F  F8  1  0.63550  0.36636  0.25392  1
 F  F9  1  0.11849  0.88775  0.25408  1
 F  F10  1  0.80070  0.53260  0.58331  1
 Fe  Fe1  1  0.29157  0.04152  0.08333  1
 Fe  Fe2  1  0.04158  0.29172  0.58333  1
 Fe  Fe3  1  0.36472  0.61485  0.22943  1
 Fe  Fe4  1  0.71877  0.96861  0.93724  1
 Li  Li1  1  0.79156  0.54155  0.08334  1
 Li  Li2  1  0.20659  0.45649  0.91297  1
 Li  Li3  1  0.11500  0.86494  0.72972  1
 Li  Li4  1  0.46827  0.21834  0.43694  1
 Li  Li5  1  0.54175  0.79150  0.58333  1
 Li  Li6  1  0.87691  0.12699  0.25369  1
 O  O1  1  0.03896  0.29453  0.08337  1
 O  O2  1  0.54453  0.78890  0.08330  1
