CIF file written using JARVIS-Tools package.
data_K4CO4
_symmetry_space_group_name_H-M  'P4_2/nmc'
_cell_length_a       5.43008
_cell_length_b       7.10324
_cell_length_c       7.10324
_cell_angle_alpha    90
_cell_angle_beta     90
_cell_angle_gamma    90

_symmetry_Int_Tables_number  137
_chemical_formula_structural  K4CO4
_chemical_formula_sum  K8C2O8
_cell_volume  273.9799703331083
_cell_formula_units_Z  2
loop_
  _symmetry_equiv_pos_site_id
 _symmetry_equiv_pos_as_xyz
 1  'x, y, z'
loop_
 _atom_site_type_symbol
 _atom_site_label
 _atom_site_symmetry_multiplicity
 _atom_site_fract_x
 _atom_site_fract_y
 _atom_site_fract_z
 _atom_site_fract_occupancy
 C  C1  1  0.25000  0.75000  0.75000  1
 C  C2  1  0.75000  0.25000  0.25000  1
 K  K1  1  0.11440  0.25007  0.96789  1
 K  K2  1  0.61440  0.46789  0.74993  1
 K  K3  1  0.61440  0.03211  0.75007  1
 K  K4  1  0.11440  0.24993  0.53211  1
 K  K5  1  0.88560  0.74993  0.03211  1
 K  K6  1  0.38560  0.53211  0.25007  1
 K  K7  1  0.38560  0.96789  0.24993  1
 K  K8  1  0.88560  0.75007  0.46789  1
 O  O1  1  0.39920  0.74998  0.91758  1
 O  O2  1  0.60080  0.25002  0.08242  1
 O  O3  1  0.39920  0.75002  0.58242  1
 O  O4  1  0.10080  0.91758  0.75002  1
 O  O5  1  0.89920  0.08242  0.24998  1
 O  O6  1  0.60080  0.24998  0.41758  1
 O  O7  1  0.89920  0.41758  0.25002  1
 O  O8  1  0.10080  0.58242  0.74998  1
