CIF file written using JARVIS-Tools package.
data_Cd2P3Cl
_symmetry_space_group_name_H-M  'C2/c'
_cell_length_a       6.07809
_cell_length_b       6.07809
_cell_length_c       7.62253
_cell_angle_alpha    82.6745
_cell_angle_beta     97.3255
_cell_angle_gamma    83.1212

_symmetry_Int_Tables_number  15
_chemical_formula_structural  Cd2P3Cl
_chemical_formula_sum  Cd4P6Cl2
_cell_volume  274.3611960348939
_cell_formula_units_Z  2
loop_
  _symmetry_equiv_pos_site_id
 _symmetry_equiv_pos_as_xyz
 1  'x, y, z'
loop_
 _atom_site_type_symbol
 _atom_site_label
 _atom_site_symmetry_multiplicity
 _atom_site_fract_x
 _atom_site_fract_y
 _atom_site_fract_z
 _atom_site_fract_occupancy
 Cd  Cd1  1  0.89784  0.40491  0.79560  1
 Cd  Cd2  1  0.40491  0.89784  0.70440  1
 Cd  Cd3  1  0.10216  0.59509  0.20440  1
 Cd  Cd4  1  0.59509  0.10216  0.29560  1
 Cl  Cl1  1  0.86634  0.86634  0.75000  1
 Cl  Cl2  1  0.13366  0.13366  0.25000  1
 P  P1  1  0.33529  0.57019  0.53093  1
 P  P2  1  0.57019  0.33529  0.96907  1
 P  P3  1  0.66471  0.42981  0.46907  1
 P  P4  1  0.42981  0.66471  0.03093  1
 P  P5  1  0.30332  0.30332  0.75000  1
 P  P6  1  0.69668  0.69668  0.25000  1
