CIF file written using JARVIS-Tools package.
data_PrSO
_symmetry_space_group_name_H-M  'Cmce'
_cell_length_a       5.90747
_cell_length_b       5.91484
_cell_length_c       7.16972
_cell_angle_alpha    114.364
_cell_angle_beta     89.9986
_cell_angle_gamma    90.0006

_symmetry_Int_Tables_number  64
_chemical_formula_structural  PrSO
_chemical_formula_sum  Pr4S4O4
_cell_volume  228.2122804856324
_cell_formula_units_Z  4
loop_
  _symmetry_equiv_pos_site_id
 _symmetry_equiv_pos_as_xyz
 1  'x, y, z'
loop_
 _atom_site_type_symbol
 _atom_site_label
 _atom_site_symmetry_multiplicity
 _atom_site_fract_x
 _atom_site_fract_y
 _atom_site_fract_z
 _atom_site_fract_occupancy
 O  O1  1  0.25498  0.49240  0.49880  1
 O  O2  1  0.25498  0.99239  0.49879  1
 O  O3  1  0.75497  0.50366  0.49879  1
 O  O4  1  0.75497  0.00366  0.49879  1
 Pr  Pr1  1  0.00498  0.65902  0.32078  1
 Pr  Pr2  1  0.00497  0.33704  0.67680  1
 Pr  Pr3  1  0.50497  0.83704  0.67682  1
 Pr  Pr4  1  0.50498  0.15901  0.32077  1
 S  S1  1  0.13181  0.87160  0.99882  1
 S  S2  1  0.37811  0.37166  0.99879  1
 S  S3  1  0.63188  0.62441  0.99878  1
 S  S4  1  0.87817  0.12447  0.99879  1
