CIF file written using JARVIS-Tools package.
data_HoNbO4
_symmetry_space_group_name_H-M  'C2/c'
_cell_length_a       5.126
_cell_length_b       5.31015
_cell_length_c       6.54561
_cell_angle_alpha    112.118
_cell_angle_beta     111.186
_cell_angle_gamma    94.2645

_symmetry_Int_Tables_number  15
_chemical_formula_structural  HoNbO4
_chemical_formula_sum  Ho2Nb2O8
_cell_volume  149.26671731221762
_cell_formula_units_Z  2
loop_
  _symmetry_equiv_pos_site_id
 _symmetry_equiv_pos_as_xyz
 1  'x, y, z'
loop_
 _atom_site_type_symbol
 _atom_site_label
 _atom_site_symmetry_multiplicity
 _atom_site_fract_x
 _atom_site_fract_y
 _atom_site_fract_z
 _atom_site_fract_occupancy
 Ho  Ho1  1  0.12151  0.37151  0.74302  1
 Ho  Ho2  1  0.87849  0.62849  0.25698  1
 Nb  Nb1  1  0.64235  0.89235  0.78470  1
 Nb  Nb2  1  0.35765  0.10765  0.21530  1
 O  O1  1  0.78900  0.95012  0.57551  1
 O  O2  1  0.28651  0.62538  0.57551  1
 O  O3  1  0.21100  0.04988  0.42449  1
 O  O4  1  0.71349  0.37462  0.42449  1
 O  O5  1  0.07201  0.28097  0.06302  1
 O  O6  1  0.49102  0.78206  0.06302  1
 O  O7  1  0.92799  0.71903  0.93698  1
 O  O8  1  0.50898  0.21794  0.93698  1
