CIF file written using JARVIS-Tools package.
data_Mn2CdO4
_symmetry_space_group_name_H-M  'I4_1/amd'
_cell_length_a       5.87005
_cell_length_b       5.87005
_cell_length_c       6.47053
_cell_angle_alpha    116.975
_cell_angle_beta     116.975
_cell_angle_gamma    90

_symmetry_Int_Tables_number  141
_chemical_formula_structural  Mn2CdO4
_chemical_formula_sum  Mn4Cd2O8
_cell_volume  171.03862788009832
_cell_formula_units_Z  2
loop_
  _symmetry_equiv_pos_site_id
 _symmetry_equiv_pos_as_xyz
 1  'x, y, z'
loop_
 _atom_site_type_symbol
 _atom_site_label
 _atom_site_symmetry_multiplicity
 _atom_site_fract_x
 _atom_site_fract_y
 _atom_site_fract_z
 _atom_site_fract_occupancy
 Cd  Cd1  1  0.62500  0.37500  0.25000  1
 Cd  Cd2  1  0.37500  0.62500  0.75000  1
 Mn  Mn1  1  0.00000  0.00000  0.00000  1
 Mn  Mn2  1  0.50000  0.00000  0.50000  1
 Mn  Mn3  1  0.00000  0.00000  0.50000  1
 Mn  Mn4  1  0.00000  0.50000  -0.00000  1
 O  O1  1  0.76646  0.80057  0.53293  1
 O  O2  1  0.76765  0.23354  0.96707  1
 O  O3  1  0.19943  0.23354  0.96707  1
 O  O4  1  0.23354  0.19943  0.46707  1
 O  O5  1  0.23354  0.76764  0.46707  1
 O  O6  1  0.23235  0.76646  0.03293  1
 O  O7  1  0.76646  0.23235  0.53293  1
 O  O8  1  0.80057  0.76646  0.03293  1
