CIF file written using JARVIS-Tools package.
data_Ba2YV3O7
_symmetry_space_group_name_H-M  'Pmmm'
_cell_length_a       3.96073
_cell_length_b       3.94886
_cell_length_c       11.3239
_cell_angle_alpha    90
_cell_angle_beta     89.9998
_cell_angle_gamma    90.0007

_symmetry_Int_Tables_number  47
_chemical_formula_structural  Ba2YV3O7
_chemical_formula_sum  Ba2YV3O7
_cell_volume  177.10926563993482
_cell_formula_units_Z  1
loop_
  _symmetry_equiv_pos_site_id
 _symmetry_equiv_pos_as_xyz
 1  'x, y, z'
loop_
 _atom_site_type_symbol
 _atom_site_label
 _atom_site_symmetry_multiplicity
 _atom_site_fract_x
 _atom_site_fract_y
 _atom_site_fract_z
 _atom_site_fract_occupancy
 Ba  Ba1  1  0.50000  0.50007  0.82371  1
 Ba  Ba2  1  0.50000  0.50006  0.17629  1
 O  O1  1  0.00001  0.50010  0.00000  1
 O  O2  1  0.50000  -0.00008  0.62755  1
 O  O3  1  0.50000  -0.00009  0.37245  1
 O  O4  1  1.00000  0.49995  0.62844  1
 O  O5  1  1.00000  0.49994  0.37156  1
 O  O6  1  0.00000  0.00008  0.82721  1
 O  O7  1  0.00000  0.00007  0.17279  1
 V  V1  1  1.00000  0.99995  0.64772  1
 V  V2  1  1.00000  0.99994  0.35228  1
 V  V3  1  0.00000  0.00010  -0.00000  1
 Y  Y1  1  0.50000  0.49990  0.50000  1
