CIF file written using JARVIS-Tools package.
data_CeAl4
_symmetry_space_group_name_H-M  'I4/mmm'
_cell_length_a       4.25416
_cell_length_b       4.25417
_cell_length_c       6.42724
_cell_angle_alpha    109.326
_cell_angle_beta     109.326
_cell_angle_gamma    90.0001

_symmetry_Int_Tables_number  139
_chemical_formula_structural  CeAl4
_chemical_formula_sum  CeAl4
_cell_volume  102.79311101134778
_cell_formula_units_Z  1
loop_
  _symmetry_equiv_pos_site_id
 _symmetry_equiv_pos_as_xyz
 1  'x, y, z'
loop_
 _atom_site_type_symbol
 _atom_site_label
 _atom_site_symmetry_multiplicity
 _atom_site_fract_x
 _atom_site_fract_y
 _atom_site_fract_z
 _atom_site_fract_occupancy
 Al  Al1  1  0.25000  0.75000  0.50000  1
 Al  Al2  1  0.75000  0.25000  0.50000  1
 Al  Al3  1  0.38924  0.38924  0.77847  1
 Al  Al4  1  0.61076  0.61076  0.22153  1
 Ce  Ce1  1  0.00000  0.00000  0.00000  1
