CIF file written using JARVIS-Tools package.
data_K2Fe2As2O9
_symmetry_space_group_name_H-M  'Pnma'
_cell_length_a       5.74992
_cell_length_b       8.41659
_cell_length_c       18.148
_cell_angle_alpha    90
_cell_angle_beta     90
_cell_angle_gamma    90

_symmetry_Int_Tables_number  62
_chemical_formula_structural  K2Fe2As2O9
_chemical_formula_sum  K8Fe8As8O36
_cell_volume  878.2663539063228
_cell_formula_units_Z  4
loop_
  _symmetry_equiv_pos_site_id
 _symmetry_equiv_pos_as_xyz
 1  'x, y, z'
loop_
 _atom_site_type_symbol
 _atom_site_label
 _atom_site_symmetry_multiplicity
 _atom_site_fract_x
 _atom_site_fract_y
 _atom_site_fract_z
 _atom_site_fract_occupancy
 As  As1  1  0.75000  0.82237  0.65230  1
 As  As2  1  0.75000  0.18214  0.05730  1
 As  As3  1  0.25000  0.81786  0.94270  1
 As  As4  1  0.25000  0.67763  0.15230  1
 As  As5  1  0.75000  0.32237  0.84770  1
 As  As6  1  0.25000  0.17763  0.34770  1
 As  As7  1  0.25000  0.31786  0.55730  1
 As  As8  1  0.75000  0.68214  0.44270  1
 Fe  Fe1  1  0.50000  0.50000  0.00000  1
 Fe  Fe2  1  0.00000  0.00000  0.50000  1
 Fe  Fe3  1  0.50000  0.00000  0.50000  1
 Fe  Fe4  1  0.75000  0.28678  0.42917  1
 Fe  Fe5  1  0.75000  0.78678  0.07083  1
 Fe  Fe6  1  0.25000  0.21322  0.92917  1
 Fe  Fe7  1  0.25000  0.71322  0.57083  1
 Fe  Fe8  1  0.00000  0.50000  0.00000  1
 K  K1  1  0.75000  0.95723  0.26306  1
 K  K2  1  0.25000  0.60249  0.37077  1
 K  K3  1  0.25000  0.04277  0.73694  1
 K  K4  1  0.25000  0.54277  0.76306  1
 K  K5  1  0.75000  0.89751  0.87077  1
 K  K6  1  0.75000  0.45723  0.23694  1
 K  K7  1  0.25000  0.10249  0.12923  1
 K  K8  1  0.75000  0.39751  0.62923  1
 O  O1  1  0.75000  0.46496  0.91775  1
 O  O2  1  0.00611  0.30130  0.35738  1
 O  O3  1  0.49821  0.72603  0.97993  1
 O  O4  1  0.00179  0.72603  0.97993  1
 O  O5  1  0.75000  0.42148  0.76745  1
 O  O6  1  0.75000  0.18683  0.15026  1
 O  O7  1  -0.00179  0.77397  0.47993  1
 O  O8  1  0.25000  0.81317  0.84974  1
 O  O9  1  0.25000  0.95283  0.56211  1
 O  O10  1  0.25000  0.53504  0.08225  1
 O  O11  1  0.50611  0.69870  0.64262  1
 O  O12  1  0.25000  0.07852  0.26745  1
 O  O13  1  0.00179  0.22603  0.52007  1
 O  O14  1  0.25000  0.03504  0.41775  1
 O  O15  1  0.49389  0.30130  0.35738  1
 O  O16  1  0.25000  0.45283  0.93789  1
 O  O17  1  0.25000  0.00770  0.97715  1
 O  O18  1  0.25000  0.57852  0.23255  1
 O  O19  1  0.49821  0.22603  0.52007  1
 O  O20  1  0.99389  0.69870  0.64262  1
 O  O21  1  -0.00179  0.27397  0.02007  1
 O  O22  1  0.75000  0.68683  0.34974  1
 O  O23  1  0.75000  0.49230  0.47715  1
 O  O24  1  0.49389  0.80130  0.14262  1
 O  O25  1  0.75000  0.96496  0.58225  1
 O  O26  1  0.50179  0.77397  0.47993  1
 O  O27  1  0.75000  0.92148  0.73255  1
 O  O28  1  0.50179  0.27397  0.02007  1
 O  O29  1  0.25000  0.50770  0.52285  1
 O  O30  1  0.50611  0.19870  0.85738  1
 O  O31  1  0.25000  0.31317  0.65026  1
 O  O32  1  0.75000  0.54717  0.06211  1
 O  O33  1  0.00611  0.80130  0.14262  1
 O  O34  1  0.75000  0.99230  0.02285  1
 O  O35  1  0.75000  0.04717  0.43789  1
 O  O36  1  0.99389  0.19870  0.85738  1
