CIF file written using JARVIS-Tools package.
data_Ba4OF6
_symmetry_space_group_name_H-M  'P6_3mc'
_cell_length_a       8.90792
_cell_length_b       8.90792
_cell_length_c       6.58282
_cell_angle_alpha    90
_cell_angle_beta     90
_cell_angle_gamma    120

_symmetry_Int_Tables_number  186
_chemical_formula_structural  Ba4OF6
_chemical_formula_sum  Ba8O2F2
_cell_volume  452.3722898507072
_cell_formula_units_Z  2
loop_
  _symmetry_equiv_pos_site_id
 _symmetry_equiv_pos_as_xyz
 1  'x, y, z'
loop_
 _atom_site_type_symbol
 _atom_site_label
 _atom_site_symmetry_multiplicity
 _atom_site_fract_x
 _atom_site_fract_y
 _atom_site_fract_z
 _atom_site_fract_occupancy
 Ba  Ba1  1  0.36593  0.18296  0.02078  1
 Ba  Ba2  1  0.66667  0.33333  0.53262  1
 Ba  Ba3  1  0.81704  0.63407  0.02078  1
 Ba  Ba4  1  0.81704  0.18296  0.02078  1
 Ba  Ba5  1  0.18296  0.81704  0.52078  1
 Ba  Ba6  1  0.33333  0.66667  0.03262  1
 Ba  Ba7  1  0.18296  0.36593  0.52078  1
 Ba  Ba8  1  0.63407  0.81704  0.52078  1
 F  F1  1  0.46883  0.53117  0.77930  1
 F  F2  1  0.53117  0.46883  0.27930  1
 F  F3  1  0.85019  0.70038  0.61128  1
 F  F4  1  0.53117  0.06233  0.27930  1
 F  F5  1  0.29962  0.14981  0.61128  1
 F  F6  1  0.14981  0.85019  0.11128  1
 F  F7  1  0.14981  0.29962  0.11128  1
 F  F8  1  0.06233  0.53117  0.77930  1
 F  F9  1  0.46883  0.93767  0.77930  1
 F  F10  1  0.93767  0.46883  0.27930  1
 F  F11  1  0.85019  0.14981  0.61128  1
 F  F12  1  0.70038  0.85019  0.11128  1
 O  O1  1  0.33333  0.66667  0.40816  1
 O  O2  1  0.66667  0.33333  0.90816  1
