CIF file written using JARVIS-Tools package.
data_AlAs
_symmetry_space_group_name_H-M  'Fm-3m'
_cell_length_a       3.76238
_cell_length_b       3.76234
_cell_length_c       3.76239
_cell_angle_alpha    60.003
_cell_angle_beta     59.9998
_cell_angle_gamma    60.0007

_symmetry_Int_Tables_number  225
_chemical_formula_structural  AlAs
_chemical_formula_sum  AlAs
_cell_volume  37.66014453497429
_cell_formula_units_Z  1
loop_
  _symmetry_equiv_pos_site_id
 _symmetry_equiv_pos_as_xyz
 1  'x, y, z'
loop_
 _atom_site_type_symbol
 _atom_site_label
 _atom_site_symmetry_multiplicity
 _atom_site_fract_x
 _atom_site_fract_y
 _atom_site_fract_z
 _atom_site_fract_occupancy
 Al  Al1  1  0.46274  0.49718  0.51023  1
 As  As1  1  0.96275  0.99718  0.01024  1
