CIF file written using JARVIS-Tools package.
data_AlH3O3
_symmetry_space_group_name_H-M  'Pbca'
_cell_length_a       8.70333
_cell_length_b       5.05291
_cell_length_c       9.26417
_cell_angle_alpha    89.9943
_cell_angle_beta     90
_cell_angle_gamma    90

_symmetry_Int_Tables_number  61
_chemical_formula_structural  AlH3O3
_chemical_formula_sum  Al8H24O24
_cell_volume  407.4119018821831
_cell_formula_units_Z  8
loop_
  _symmetry_equiv_pos_site_id
 _symmetry_equiv_pos_as_xyz
 1  'x, y, z'
loop_
 _atom_site_type_symbol
 _atom_site_label
 _atom_site_symmetry_multiplicity
 _atom_site_fract_x
 _atom_site_fract_y
 _atom_site_fract_z
 _atom_site_fract_occupancy
 Al  Al1  1  0.33454  0.96853  0.48685  1
 Al  Al2  1  0.66546  0.03147  0.51315  1
 Al  Al3  1  0.83454  0.53147  0.51315  1
 Al  Al4  1  0.16546  0.46853  0.48685  1
 Al  Al5  1  0.83454  0.96844  0.01315  1
 Al  Al6  1  0.16546  0.03156  0.98685  1
 Al  Al7  1  0.33454  0.53156  0.98685  1
 Al  Al8  1  0.66546  0.46844  0.01315  1
 H  H1  1  0.96090  0.17356  0.38924  1
 H  H2  1  0.53910  0.67356  0.38924  1
 H  H3  1  0.46090  0.32644  0.61076  1
 H  H4  1  0.19123  0.17067  0.69549  1
 H  H5  1  0.11202  0.84155  0.31170  1
 H  H6  1  0.30877  0.67067  0.69549  1
 H  H7  1  0.88798  0.15845  0.68830  1
 H  H8  1  0.61202  0.65845  0.68830  1
 H  H9  1  0.80877  0.82933  0.30451  1
 H  H10  1  0.03910  0.82644  0.61076  1
 H  H11  1  0.38798  0.34155  0.31170  1
 H  H12  1  0.69123  0.32933  0.30451  1
 H  H13  1  0.96084  0.32643  0.88922  1
 H  H14  1  0.80880  0.67061  0.80451  1
 H  H15  1  0.53916  0.82643  0.88922  1
 H  H16  1  0.69120  0.17061  0.80451  1
 H  H17  1  0.30880  0.82939  0.19549  1
 H  H18  1  0.38797  0.15854  0.81173  1
 H  H19  1  0.46084  0.17357  0.11078  1
 H  H20  1  0.11203  0.65854  0.81173  1
 H  H21  1  0.03916  0.67357  0.11078  1
 H  H22  1  0.61203  0.84146  0.18827  1
 H  H23  1  0.19120  0.32939  0.19549  1
 H  H24  1  0.88797  0.34146  0.18827  1
 O  O1  1  0.30361  0.22976  0.87013  1
 O  O2  1  0.19637  0.77036  0.37014  1
 O  O3  1  0.01667  0.63507  0.61295  1
 O  O4  1  0.98333  0.36493  0.38705  1
 O  O5  1  0.51667  0.86493  0.38705  1
 O  O6  1  0.48333  0.13507  0.61295  1
 O  O7  1  0.17050  0.14312  0.59205  1
 O  O8  1  0.67050  0.35688  0.40795  1
 O  O9  1  0.32950  0.64312  0.59205  1
 O  O10  1  0.80363  0.22964  0.62986  1
 O  O11  1  0.82950  0.85688  0.40795  1
 O  O12  1  0.32951  0.85695  0.09204  1
 O  O13  1  0.01669  0.86492  0.11295  1
 O  O14  1  0.48331  0.36492  0.11295  1
 O  O15  1  0.51669  0.63508  0.88705  1
 O  O16  1  0.67049  0.14305  0.90796  1
 O  O17  1  0.17049  0.35695  0.09204  1
 O  O18  1  0.82951  0.64305  0.90796  1
 O  O19  1  0.80361  0.27024  0.12987  1
 O  O20  1  0.98331  0.13508  0.88705  1
 O  O21  1  0.19639  0.72976  0.87013  1
 O  O22  1  0.30363  0.27036  0.37014  1
 O  O23  1  0.69637  0.72964  0.62986  1
 O  O24  1  0.69639  0.77024  0.12987  1
