CIF file written using JARVIS-Tools package.
data_MoWO6
_symmetry_space_group_name_H-M  'P2_1/c'
_cell_length_a       5.21481
_cell_length_b       5.36195
_cell_length_c       9.09677
_cell_angle_alpha    90
_cell_angle_beta     124.979
_cell_angle_gamma    90

_symmetry_Int_Tables_number  14
_chemical_formula_structural  MoWO6
_chemical_formula_sum  Mo2W2O2
_cell_volume  208.41319199906823
_cell_formula_units_Z  2
loop_
  _symmetry_equiv_pos_site_id
 _symmetry_equiv_pos_as_xyz
 1  'x, y, z'
loop_
 _atom_site_type_symbol
 _atom_site_label
 _atom_site_symmetry_multiplicity
 _atom_site_fract_x
 _atom_site_fract_y
 _atom_site_fract_z
 _atom_site_fract_occupancy
 Mo  Mo1  1  0.50000  0.00000  0.00000  1
 Mo  Mo2  1  0.50000  0.50000  0.50000  1
 O  O1  1  0.17132  0.71423  0.45749  1
 O  O2  1  0.82868  0.21423  0.04251  1
 O  O3  1  0.82868  0.28577  0.54251  1
 O  O4  1  0.17132  0.78577  0.95749  1
 O  O5  1  0.75450  0.78406  0.54248  1
 O  O6  1  0.24550  0.28406  0.95752  1
 O  O7  1  0.24550  0.21594  0.45752  1
 O  O8  1  0.75450  0.71594  0.04248  1
 O  O9  1  0.33520  0.51141  0.25092  1
 O  O10  1  0.66480  0.01141  0.24908  1
 O  O11  1  0.33520  0.98859  0.75092  1
 O  O12  1  0.66480  0.48859  0.74908  1
 W  W1  1  0.00000  0.00000  0.50000  1
 W  W2  1  0.00000  0.50000  0.00000  1
