CIF file written using JARVIS-Tools package.
data_Li3VBPO7
_symmetry_space_group_name_H-M  'P2_1/m'
_cell_length_a       5.00781
_cell_length_b       6.33477
_cell_length_c       8.38741
_cell_angle_alpha    90
_cell_angle_beta     96.1626
_cell_angle_gamma    90

_symmetry_Int_Tables_number  11
_chemical_formula_structural  Li3VBPO7
_chemical_formula_sum  Li6V2B2P2O4
_cell_volume  264.53871311822456
_cell_formula_units_Z  2
loop_
  _symmetry_equiv_pos_site_id
 _symmetry_equiv_pos_as_xyz
 1  'x, y, z'
loop_
 _atom_site_type_symbol
 _atom_site_label
 _atom_site_symmetry_multiplicity
 _atom_site_fract_x
 _atom_site_fract_y
 _atom_site_fract_z
 _atom_site_fract_occupancy
 B  B1  1  0.69624  0.75000  0.96240  1
 B  B2  1  0.30376  0.25000  0.03760  1
 Li  Li1  1  0.22760  0.75000  0.09509  1
 Li  Li2  1  0.73436  -0.00339  0.24317  1
 Li  Li3  1  0.73436  0.50339  0.24317  1
 Li  Li4  1  0.26564  0.49661  0.75683  1
 Li  Li5  1  0.26564  0.00339  0.75683  1
 Li  Li6  1  0.77240  0.25000  0.90491  1
 O  O1  1  0.95689  0.75000  0.91961  1
 O  O2  1  0.04311  0.25000  0.08039  1
 O  O3  1  0.49518  0.25000  0.17534  1
 O  O4  1  0.16962  0.93881  0.30808  1
 O  O5  1  0.16962  0.56119  0.30808  1
 O  O6  1  0.62119  0.75000  0.11255  1
 O  O7  1  0.86331  0.25000  0.42380  1
 O  O8  1  0.13669  0.75000  0.57620  1
 O  O9  1  0.50482  0.75000  0.82466  1
 O  O10  1  0.83038  0.43881  0.69192  1
 O  O11  1  0.83038  0.06119  0.69192  1
 O  O12  1  0.57508  0.75000  0.45561  1
 O  O13  1  0.42492  0.25000  0.54439  1
 O  O14  1  0.37881  0.25000  0.88745  1
 P  P1  1  0.73379  0.25000  0.58137  1
 P  P2  1  0.26621  0.75000  0.41863  1
 V  V1  1  0.78965  0.75000  0.68323  1
 V  V2  1  0.21035  0.25000  0.31677  1
