CIF file written using JARVIS-Tools package.
data_AlAs
_symmetry_space_group_name_H-M  'Pa-3'
_cell_length_a       7.02795
_cell_length_b       7.02795
_cell_length_c       7.02795
_cell_angle_alpha    90
_cell_angle_beta     90
_cell_angle_gamma    90

_symmetry_Int_Tables_number  205
_chemical_formula_structural  AlAs
_chemical_formula_sum  Al8As8
_cell_volume  347.125474551154
_cell_formula_units_Z  8
loop_
  _symmetry_equiv_pos_site_id
 _symmetry_equiv_pos_as_xyz
 1  'x, y, z'
loop_
 _atom_site_type_symbol
 _atom_site_label
 _atom_site_symmetry_multiplicity
 _atom_site_fract_x
 _atom_site_fract_y
 _atom_site_fract_z
 _atom_site_fract_occupancy
 Al  Al1  1  0.34276  0.34276  0.34276  1
 Al  Al2  1  0.15724  0.65724  0.84276  1
 Al  Al3  1  0.84276  0.15724  0.65724  1
 Al  Al4  1  0.65724  0.84276  0.15724  1
 Al  Al5  1  0.65724  0.65724  0.65724  1
 Al  Al6  1  0.84276  0.34276  0.15724  1
 Al  Al7  1  0.15724  0.84276  0.34276  1
 Al  Al8  1  0.34276  0.15724  0.84276  1
 As  As1  1  0.14260  0.14260  0.14260  1
 As  As2  1  0.35740  0.85740  0.64260  1
 As  As3  1  0.64260  0.35740  0.85740  1
 As  As4  1  0.85740  0.64260  0.35740  1
 As  As5  1  0.85740  0.85740  0.85740  1
 As  As6  1  0.64260  0.14260  0.35740  1
 As  As7  1  0.35740  0.64260  0.14260  1
 As  As8  1  0.14260  0.35740  0.64260  1
