CIF file written using JARVIS-Tools package.
data_Sr2CdWO6
_symmetry_space_group_name_H-M  'Pmmn'
_cell_length_a       5.81314
_cell_length_b       5.95628
_cell_length_c       8.26861
_cell_angle_alpha    90
_cell_angle_beta     90
_cell_angle_gamma    90

_symmetry_Int_Tables_number  59
_chemical_formula_structural  Sr2CdWO6
_chemical_formula_sum  Sr4Cd2W2O2
_cell_volume  286.29810208556086
_cell_formula_units_Z  2
loop_
  _symmetry_equiv_pos_site_id
 _symmetry_equiv_pos_as_xyz
 1  'x, y, z'
loop_
 _atom_site_type_symbol
 _atom_site_label
 _atom_site_symmetry_multiplicity
 _atom_site_fract_x
 _atom_site_fract_y
 _atom_site_fract_z
 _atom_site_fract_occupancy
 Cd  Cd1  1  0.50000  0.46485  0.00000  1
 Cd  Cd2  1  0.00000  -0.00285  0.50000  1
 O  O1  1  0.76753  0.73688  0.00000  1
 O  O2  1  0.50000  0.50607  0.26738  1
 O  O3  1  0.00000  0.95593  0.76737  1
 O  O4  1  0.00000  0.95593  0.23263  1
 O  O5  1  0.73247  0.72512  0.50000  1
 O  O6  1  0.26753  0.72512  0.50000  1
 O  O7  1  0.73882  0.26916  0.50000  1
 O  O8  1  0.26118  0.26916  0.50000  1
 O  O9  1  0.76118  0.19284  0.00000  1
 O  O10  1  0.23882  0.19284  0.00000  1
 O  O11  1  0.23247  0.73688  0.00000  1
 O  O12  1  0.50000  0.50607  0.73262  1
 Sr  Sr1  1  0.50000  0.95029  0.75689  1
 Sr  Sr2  1  0.50000  0.95029  0.24311  1
 Sr  Sr3  1  0.00000  0.51171  0.74311  1
 Sr  Sr4  1  0.00000  0.51171  0.25689  1
 W  W1  1  0.50000  0.48764  0.50000  1
 W  W2  1  0.00000  0.97436  0.00000  1
