CIF file written using JARVIS-Tools package.
data_Na2Ge2Se5
_symmetry_space_group_name_H-M  'Pna2_1'
_cell_length_a       6.21273
_cell_length_b       11.2776
_cell_length_c       13.8657
_cell_angle_alpha    90
_cell_angle_beta     90
_cell_angle_gamma    90

_symmetry_Int_Tables_number  33
_chemical_formula_structural  Na2Ge2Se5
_chemical_formula_sum  Na8Ge8Se20
_cell_volume  971.4983638526701
_cell_formula_units_Z  4
loop_
  _symmetry_equiv_pos_site_id
 _symmetry_equiv_pos_as_xyz
 1  'x, y, z'
loop_
 _atom_site_type_symbol
 _atom_site_label
 _atom_site_symmetry_multiplicity
 _atom_site_fract_x
 _atom_site_fract_y
 _atom_site_fract_z
 _atom_site_fract_occupancy
 Ge  Ge1  1  0.96216  0.39299  0.70495  1
 Ge  Ge2  1  0.03784  0.89299  0.29505  1
 Ge  Ge3  1  0.53784  0.39299  0.20495  1
 Ge  Ge4  1  0.46216  0.89299  0.79505  1
 Ge  Ge5  1  0.04522  0.20114  0.15282  1
 Ge  Ge6  1  0.95478  0.70114  0.84718  1
 Ge  Ge7  1  0.45478  0.20114  0.65282  1
 Ge  Ge8  1  0.54522  0.70114  0.34718  1
 Na  Na1  1  0.99770  0.49586  0.06078  1
 Na  Na2  1  0.50247  0.24709  0.96183  1
 Na  Na3  1  0.00247  0.74709  0.53817  1
 Na  Na4  1  0.99753  0.24709  0.46183  1
 Na  Na5  1  0.49770  0.99586  0.43922  1
 Na  Na6  1  0.50230  0.49586  0.56078  1
 Na  Na7  1  0.00230  0.99586  0.93922  1
 Na  Na8  1  0.49753  0.74709  0.03817  1
 Se  Se1  1  0.41163  0.18800  0.21163  1
 Se  Se2  1  0.38788  0.50463  0.33826  1
 Se  Se3  1  -0.00008  0.48351  0.55557  1
 Se  Se4  1  0.11212  0.50463  0.83826  1
 Se  Se5  1  0.88788  0.00463  0.16174  1
 Se  Se6  1  0.91163  0.68800  0.28837  1
 Se  Se7  1  0.08837  0.18800  0.71163  1
 Se  Se8  1  0.58837  0.68800  0.78837  1
 Se  Se9  1  0.61212  0.00463  0.66174  1
 Se  Se10  1  0.49992  0.98351  0.94443  1
 Se  Se11  1  0.90798  0.35724  0.25884  1
 Se  Se12  1  0.50123  0.74675  0.50964  1
 Se  Se13  1  0.49877  0.24675  0.49036  1
 Se  Se14  1  0.99877  0.74675  0.00964  1
 Se  Se15  1  0.00123  0.24675  0.99036  1
 Se  Se16  1  0.50008  0.48351  0.05557  1
 Se  Se17  1  0.40798  0.85724  0.24116  1
 Se  Se18  1  0.09202  0.85724  0.74116  1
 Se  Se19  1  0.59202  0.35724  0.75884  1
 Se  Se20  1  0.00008  0.98351  0.44443  1
