CIF file written using JARVIS-Tools package.
data_Co4NiO8
_symmetry_space_group_name_H-M  'C2/m'
_cell_length_a       5.64206
_cell_length_b       5.6672
_cell_length_c       5.63252
_cell_angle_alpha    88.6998
_cell_angle_beta     120.042
_cell_angle_gamma    119.854

_symmetry_Int_Tables_number  12
_chemical_formula_structural  Co4NiO8
_chemical_formula_sum  Co4NiO8
_cell_volume  128.91354327267123
_cell_formula_units_Z  1
loop_
  _symmetry_equiv_pos_site_id
 _symmetry_equiv_pos_as_xyz
 1  'x, y, z'
loop_
 _atom_site_type_symbol
 _atom_site_label
 _atom_site_symmetry_multiplicity
 _atom_site_fract_x
 _atom_site_fract_y
 _atom_site_fract_z
 _atom_site_fract_occupancy
 Co  Co1  1  -0.00000  0.50000  0.50000  1
 Co  Co2  1  0.00000  0.00000  0.00000  1
 Co  Co3  1  0.50000  0.50000  -0.00000  1
 Co  Co4  1  0.00000  0.50000  -0.00000  1
 Ni  Ni1  1  0.50000  -0.00000  0.00000  1
 O  O1  1  0.53529  0.27483  0.79567  1
 O  O2  1  0.03376  0.76427  0.78766  1
 O  O3  1  0.51826  0.76427  0.78767  1
 O  O4  1  0.03235  0.27686  0.78776  1
 O  O5  1  0.96765  0.72314  0.21224  1
 O  O6  1  0.48174  0.23573  0.21233  1
 O  O7  1  0.96624  0.23573  0.21234  1
 O  O8  1  0.46471  0.72517  0.20433  1
