CIF file written using JARVIS-Tools package.
data_ZrMnO3
_symmetry_space_group_name_H-M  'R3c'
_cell_length_a       5.42334
_cell_length_b       5.42334
_cell_length_c       5.75957
_cell_angle_alpha    61.9133
_cell_angle_beta     61.9136
_cell_angle_gamma    60

_symmetry_Int_Tables_number  161
_chemical_formula_structural  ZrMnO3
_chemical_formula_sum  Zr2Mn2O6
_cell_volume  123.13509207196313
_cell_formula_units_Z  2
loop_
  _symmetry_equiv_pos_site_id
 _symmetry_equiv_pos_as_xyz
 1  'x, y, z'
loop_
 _atom_site_type_symbol
 _atom_site_label
 _atom_site_symmetry_multiplicity
 _atom_site_fract_x
 _atom_site_fract_y
 _atom_site_fract_z
 _atom_site_fract_occupancy
 Mn  Mn1  1  0.98400  0.98408  0.04784  1
 Mn  Mn2  1  0.48400  0.48405  0.54787  1
 O  O1  1  0.41724  0.81143  0.68702  1
 O  O2  1  0.81139  0.08429  0.68705  1
 O  O3  1  0.91722  0.58431  0.18704  1
 O  O4  1  0.08424  0.41725  0.68706  1
 O  O5  1  0.31138  0.91729  0.18702  1
 O  O6  1  0.58424  0.31146  0.18706  1
 Zr  Zr1  1  0.20315  0.20321  0.39041  1
 Zr  Zr2  1  0.70315  0.70322  0.89042  1
