CIF file written using JARVIS-Tools package.
data_BaCaCO3
_symmetry_space_group_name_H-M  'P6_3mc'
_cell_length_a       5.24001
_cell_length_b       5.24006
_cell_length_c       13.1615
_cell_angle_alpha    90
_cell_angle_beta     90
_cell_angle_gamma    120

_symmetry_Int_Tables_number  186
_chemical_formula_structural  BaCaCO3
_chemical_formula_sum  Ba2Ca2C2O6
_cell_volume  312.97214712185513
_cell_formula_units_Z  2
loop_
  _symmetry_equiv_pos_site_id
 _symmetry_equiv_pos_as_xyz
 1  'x, y, z'
loop_
 _atom_site_type_symbol
 _atom_site_label
 _atom_site_symmetry_multiplicity
 _atom_site_fract_x
 _atom_site_fract_y
 _atom_site_fract_z
 _atom_site_fract_occupancy
 Ba  Ba1  1  0.66670  0.33340  0.50273  1
 Ba  Ba2  1  0.33330  0.66660  0.00273  1
 C  C1  1  -0.00003  -0.00006  0.92212  1
 C  C2  1  0.00003  0.00006  0.42212  1
 Ca  Ca1  1  0.66663  0.33326  0.80513  1
 Ca  Ca2  1  0.33337  0.66674  0.30513  1
 O  O1  1  0.85733  0.71466  0.92401  1
 O  O2  1  0.28525  0.14257  0.92401  1
 O  O3  1  0.85732  0.14257  0.92401  1
 O  O4  1  0.14267  0.28534  0.42401  1
 O  O5  1  0.71475  0.85743  0.42401  1
 O  O6  1  0.14268  0.85743  0.42401  1
