CIF file written using JARVIS-Tools package.
data_BrF3
_symmetry_space_group_name_H-M  'Cmc2_1'
_cell_length_a       4.65734
_cell_length_b       4.65734
_cell_length_c       6.16299
_cell_angle_alpha    90
_cell_angle_beta     90
_cell_angle_gamma    109.912

_symmetry_Int_Tables_number  36
_chemical_formula_structural  BrF3
_chemical_formula_sum  Br2F6
_cell_volume  125.68881111674125
_cell_formula_units_Z  2
loop_
  _symmetry_equiv_pos_site_id
 _symmetry_equiv_pos_as_xyz
 1  'x, y, z'
loop_
 _atom_site_type_symbol
 _atom_site_label
 _atom_site_symmetry_multiplicity
 _atom_site_fract_x
 _atom_site_fract_y
 _atom_site_fract_z
 _atom_site_fract_occupancy
 Br  Br1  1  0.83583  0.16417  0.25864  1
 Br  Br2  1  0.16417  0.83583  0.75864  1
 F  F1  1  0.07444  0.92556  0.09422  1
 F  F2  1  0.92556  0.07444  0.59422  1
 F  F3  1  0.26589  0.73411  0.49422  1
 F  F4  1  0.73411  0.26589  0.99422  1
 F  F5  1  0.38090  0.61910  0.88292  1
 F  F6  1  0.61910  0.38090  0.38292  1
