CIF file written using JARVIS-Tools package.
data_V4Zn5
_symmetry_space_group_name_H-M  'I4/mmm'
_cell_length_a       3.20859
_cell_length_b       6.47032
_cell_length_c       6.47032
_cell_angle_alpha    86.4754
_cell_angle_beta     75.644
_cell_angle_gamma    75.644

_symmetry_Int_Tables_number  139
_chemical_formula_structural  V4Zn5
_chemical_formula_sum  V4Zn5
_cell_volume  126.06962700831863
_cell_formula_units_Z  1
loop_
  _symmetry_equiv_pos_site_id
 _symmetry_equiv_pos_as_xyz
 1  'x, y, z'
loop_
 _atom_site_type_symbol
 _atom_site_label
 _atom_site_symmetry_multiplicity
 _atom_site_fract_x
 _atom_site_fract_y
 _atom_site_fract_z
 _atom_site_fract_occupancy
 V  V1  1  0.00000  0.34430  0.65570  1
 V  V2  1  0.00000  0.65570  0.34430  1
 V  V3  1  0.65570  0.34430  0.34430  1
 V  V4  1  0.34430  0.65570  0.65570  1
 Zn  Zn1  1  0.00000  0.00000  0.00000  1
 Zn  Zn2  1  0.33035  0.00000  0.33930  1
 Zn  Zn3  1  0.66965  0.00000  0.66070  1
 Zn  Zn4  1  0.66965  0.66070  0.00000  1
 Zn  Zn5  1  0.33035  0.33930  0.00000  1
