CIF file written using JARVIS-Tools package.
data_TlFeF3
_symmetry_space_group_name_H-M  'Pm-3m'
_cell_length_a       4.18271
_cell_length_b       4.18318
_cell_length_c       4.18496
_cell_angle_alpha    89.9948
_cell_angle_beta     89.9946
_cell_angle_gamma    89.9522

_symmetry_Int_Tables_number  221
_chemical_formula_structural  TlFeF3
_chemical_formula_sum  TlFeF3
_cell_volume  73.22429585724413
_cell_formula_units_Z  1
loop_
  _symmetry_equiv_pos_site_id
 _symmetry_equiv_pos_as_xyz
 1  'x, y, z'
loop_
 _atom_site_type_symbol
 _atom_site_label
 _atom_site_symmetry_multiplicity
 _atom_site_fract_x
 _atom_site_fract_y
 _atom_site_fract_z
 _atom_site_fract_occupancy
 F  F1  1  0.98996  0.49204  0.49399  1
 F  F2  1  0.49001  0.99197  0.49399  1
 F  F3  1  0.48999  0.49199  0.99401  1
 Fe  Fe1  1  0.48996  0.49196  0.49402  1
 Tl  Tl1  1  0.99007  0.99205  0.99400  1
