CIF file written using JARVIS-Tools package.
data_DyHO2
_symmetry_space_group_name_H-M  'Pmn2_1'
_cell_length_a       3.5009
_cell_length_b       4.86609
_cell_length_c       5.47802
_cell_angle_alpha    90
_cell_angle_beta     90
_cell_angle_gamma    90

_symmetry_Int_Tables_number  31
_chemical_formula_structural  DyHO2
_chemical_formula_sum  Dy2H2O4
_cell_volume  93.32209152230851
_cell_formula_units_Z  2
loop_
  _symmetry_equiv_pos_site_id
 _symmetry_equiv_pos_as_xyz
 1  'x, y, z'
loop_
 _atom_site_type_symbol
 _atom_site_label
 _atom_site_symmetry_multiplicity
 _atom_site_fract_x
 _atom_site_fract_y
 _atom_site_fract_z
 _atom_site_fract_occupancy
 Dy  Dy1  1  0.00000  0.72105  0.98438  1
 Dy  Dy2  1  0.50000  0.27895  0.48438  1
 H  H1  1  0.50000  0.18706  0.96239  1
 H  H2  1  0.00000  0.81294  0.46239  1
 O  O1  1  0.50000  0.01730  0.85427  1
 O  O2  1  0.00000  0.51972  0.62173  1
 O  O3  1  0.00000  0.98270  0.35427  1
 O  O4  1  0.50000  0.48028  0.12173  1
