CIF file written using JARVIS-Tools package.
data_Ba3Br2O2
_symmetry_space_group_name_H-M  'P2_1/c'
_cell_length_a       7.47131
_cell_length_b       8.21589
_cell_length_c       7.76657
_cell_angle_alpha    90
_cell_angle_beta     114.308
_cell_angle_gamma    90

_symmetry_Int_Tables_number  14
_chemical_formula_structural  Ba3Br2O2
_chemical_formula_sum  Ba6Br4O4
_cell_volume  434.4727770455338
_cell_formula_units_Z  2
loop_
  _symmetry_equiv_pos_site_id
 _symmetry_equiv_pos_as_xyz
 1  'x, y, z'
loop_
 _atom_site_type_symbol
 _atom_site_label
 _atom_site_symmetry_multiplicity
 _atom_site_fract_x
 _atom_site_fract_y
 _atom_site_fract_z
 _atom_site_fract_occupancy
 Ba  Ba1  1  -0.00000  0.50000  0.50000  1
 Ba  Ba2  1  0.00000  0.00000  0.00000  1
 Ba  Ba3  1  0.40576  0.87909  0.76909  1
 Ba  Ba4  1  0.59424  0.37909  0.73091  1
 Ba  Ba5  1  0.40576  0.62091  0.26909  1
 Ba  Ba6  1  0.59424  0.12091  0.23091  1
 Br  Br1  1  0.18513  0.34640  0.92619  1
 Br  Br2  1  0.18513  0.15360  0.42619  1
 Br  Br3  1  0.81487  0.84640  0.57381  1
 Br  Br4  1  0.81487  0.65360  0.07381  1
 O  O1  1  0.34134  0.61250  0.56728  1
 O  O2  1  0.65866  0.11250  0.93272  1
 O  O3  1  0.34134  0.88750  0.06728  1
 O  O4  1  0.65866  0.38750  0.43272  1
