CIF file written using JARVIS-Tools package.
data_VOF
_symmetry_space_group_name_H-M  'Pnma'
_cell_length_a       3.25704
_cell_length_b       5.18891
_cell_length_c       7.08554
_cell_angle_alpha    90
_cell_angle_beta     90
_cell_angle_gamma    90

_symmetry_Int_Tables_number  62
_chemical_formula_structural  VOF
_chemical_formula_sum  V4O4F4
_cell_volume  119.74900473343449
_cell_formula_units_Z  4
loop_
  _symmetry_equiv_pos_site_id
 _symmetry_equiv_pos_as_xyz
 1  'x, y, z'
loop_
 _atom_site_type_symbol
 _atom_site_label
 _atom_site_symmetry_multiplicity
 _atom_site_fract_x
 _atom_site_fract_y
 _atom_site_fract_z
 _atom_site_fract_occupancy
 F  F1  1  0.75000  0.38117  0.88906  1
 F  F2  1  0.25000  0.88117  0.61094  1
 F  F3  1  0.75000  0.11883  0.38906  1
 F  F4  1  0.25000  0.61883  0.11094  1
 O  O1  1  0.75000  0.89613  0.87176  1
 O  O2  1  0.25000  0.39613  0.62824  1
 O  O3  1  0.75000  0.60387  0.37176  1
 O  O4  1  0.25000  0.10387  0.12824  1
 V  V1  1  0.25000  0.13155  0.84568  1
 V  V2  1  0.75000  0.63155  0.65432  1
 V  V3  1  0.25000  0.36845  0.34568  1
 V  V4  1  0.75000  0.86845  0.15432  1
