CIF file written using JARVIS-Tools package.
data_CrGa3P4
_symmetry_space_group_name_H-M  'P-43m'
_cell_length_a       5.48342
_cell_length_b       5.48342
_cell_length_c       5.48342
_cell_angle_alpha    90
_cell_angle_beta     90
_cell_angle_gamma    90

_symmetry_Int_Tables_number  215
_chemical_formula_structural  CrGa3P4
_chemical_formula_sum  CrGa3P4
_cell_volume  164.87485561908932
_cell_formula_units_Z  1
loop_
  _symmetry_equiv_pos_site_id
 _symmetry_equiv_pos_as_xyz
 1  'x, y, z'
loop_
 _atom_site_type_symbol
 _atom_site_label
 _atom_site_symmetry_multiplicity
 _atom_site_fract_x
 _atom_site_fract_y
 _atom_site_fract_z
 _atom_site_fract_occupancy
 Cr  Cr1  1  0.00000  0.00000  0.00000  1
 Ga  Ga1  1  0.00000  0.50000  0.50000  1
 Ga  Ga2  1  0.50000  0.00000  0.50000  1
 Ga  Ga3  1  0.50000  0.50000  0.00000  1
 P  P1  1  0.24611  0.24611  0.24611  1
 P  P2  1  0.75389  0.75389  0.24611  1
 P  P3  1  0.24611  0.75389  0.75389  1
 P  P4  1  0.75389  0.24611  0.75389  1
