CIF file written using JARVIS-Tools package.
data_K2Al2Si3O10
_symmetry_space_group_name_H-M  'Fdd2'
_cell_length_a       6.504
_cell_length_b       9.00094
_cell_length_c       9.65226
_cell_angle_alpha    83.0083
_cell_angle_beta     70.3109
_cell_angle_gamma    68.8202

_symmetry_Int_Tables_number  43
_chemical_formula_structural  K2Al2Si3O10
_chemical_formula_sum  K4Al4Si6O20
_cell_volume  496.09003436114904
_cell_formula_units_Z  2
loop_
  _symmetry_equiv_pos_site_id
 _symmetry_equiv_pos_as_xyz
 1  'x, y, z'
loop_
 _atom_site_type_symbol
 _atom_site_label
 _atom_site_symmetry_multiplicity
 _atom_site_fract_x
 _atom_site_fract_y
 _atom_site_fract_z
 _atom_site_fract_occupancy
 Al  Al1  1  0.29831  0.43274  0.69764  1
 Al  Al2  1  0.42869  0.56726  0.30236  1
 Al  Al3  1  0.48105  0.06726  0.19764  1
 Al  Al4  1  0.74594  0.93274  0.80236  1
 K  K1  1  0.74406  0.39322  0.86734  1
 K  K2  1  0.00461  0.60678  0.13266  1
 K  K3  1  0.88728  0.10678  0.36734  1
 K  K4  1  0.36139  0.89322  0.63266  1
 O  O1  1  0.14254  0.70211  0.38063  1
 O  O2  1  0.75645  0.08760  0.12770  1
 O  O3  1  0.84964  0.90168  0.60868  1
 O  O4  1  0.36001  0.09832  0.39132  1
 O  O5  1  0.50133  0.59832  0.10868  1
 O  O6  1  0.63415  0.58760  0.37230  1
 O  O7  1  0.97175  0.91240  0.87230  1
 O  O8  1  -0.00104  0.36478  0.42037  1
 O  O9  1  0.59465  0.79789  0.88063  1
 O  O10  1  0.59405  0.41240  0.62770  1
 O  O11  1  0.20832  0.40168  0.89132  1
 O  O12  1  0.55451  0.12850  0.84169  1
 O  O13  1  0.11375  0.13522  0.92037  1
 O  O14  1  0.43301  0.37150  0.34169  1
 O  O15  1  0.14620  0.62850  0.65831  1
 O  O16  1  0.22528  0.29789  0.61937  1
 O  O17  1  0.16933  0.86478  0.07963  1
 O  O18  1  0.27317  0.20211  0.11937  1
 O  O19  1  0.52470  0.87150  0.15831  1
 O  O20  1  0.78412  0.63522  0.57963  1
 Si  Si1  1  0.29078  0.21582  0.94641  1
 Si  Si2  1  0.74589  0.50000  0.50000  1
 Si  Si3  1  0.99589  0.00000  0.00000  1
 Si  Si4  1  0.45301  0.78418  0.05359  1
 Si  Si5  1  0.25660  0.28418  0.44641  1
 Si  Si6  1  0.98719  0.71582  0.55359  1
