CIF file written using JARVIS-Tools package.
data_CaV2O4
_symmetry_space_group_name_H-M  'Pnma'
_cell_length_a       2.97147
_cell_length_b       9.26188
_cell_length_c       10.7587
_cell_angle_alpha    90
_cell_angle_beta     90
_cell_angle_gamma    90

_symmetry_Int_Tables_number  62
_chemical_formula_structural  CaV2O4
_chemical_formula_sum  Ca4V8O6
_cell_volume  296.0936360147456
_cell_formula_units_Z  4
loop_
  _symmetry_equiv_pos_site_id
 _symmetry_equiv_pos_as_xyz
 1  'x, y, z'
loop_
 _atom_site_type_symbol
 _atom_site_label
 _atom_site_symmetry_multiplicity
 _atom_site_fract_x
 _atom_site_fract_y
 _atom_site_fract_z
 _atom_site_fract_occupancy
 Ca  Ca1  1  0.25000  0.24201  0.34506  1
 Ca  Ca2  1  0.25000  0.74201  0.15494  1
 Ca  Ca3  1  0.75000  0.25799  0.84506  1
 Ca  Ca4  1  0.75000  0.75799  0.65494  1
 O  O1  1  0.75000  0.70674  0.33534  1
 O  O2  1  0.75000  0.41677  0.42689  1
 O  O3  1  0.75000  0.20674  0.16466  1
 O  O4  1  0.25000  0.79326  0.83534  1
 O  O5  1  0.75000  0.61695  0.02364  1
 O  O6  1  0.25000  0.38305  0.97636  1
 O  O7  1  0.25000  0.29326  0.66466  1
 O  O8  1  0.25000  0.88305  0.52364  1
 O  O9  1  0.25000  0.47619  0.21667  1
 O  O10  1  0.75000  0.02381  0.71667  1
 O  O11  1  0.25000  0.97619  0.28333  1
 O  O12  1  0.25000  0.08323  0.92689  1
 O  O13  1  0.75000  0.11695  0.47636  1
 O  O14  1  0.75000  0.52381  0.78333  1
 O  O15  1  0.75000  0.91677  0.07311  1
 O  O16  1  0.25000  0.58323  0.57311  1
 V  V1  1  0.25000  0.08347  0.60531  1
 V  V2  1  0.25000  0.06355  0.11348  1
 V  V3  1  0.75000  0.43645  0.61348  1
 V  V4  1  0.25000  0.56355  0.38652  1
 V  V5  1  0.75000  0.91653  0.39469  1
 V  V6  1  0.75000  0.93645  0.88652  1
 V  V7  1  0.75000  0.41653  0.10531  1
 V  V8  1  0.25000  0.58347  0.89469  1
