CIF file written using JARVIS-Tools package.
data_Al2O3
_symmetry_space_group_name_H-M  'C2/m'
_cell_length_a       2.93891
_cell_length_b       5.67009
_cell_length_c       6.12688
_cell_angle_alpha    103.63
_cell_angle_beta     103.877
_cell_angle_gamma    90.0001

_symmetry_Int_Tables_number  12
_chemical_formula_structural  Al2O3
_chemical_formula_sum  Al4O6
_cell_volume  96.15327709892365
_cell_formula_units_Z  2
loop_
  _symmetry_equiv_pos_site_id
 _symmetry_equiv_pos_as_xyz
 1  'x, y, z'
loop_
 _atom_site_type_symbol
 _atom_site_label
 _atom_site_symmetry_multiplicity
 _atom_site_fract_x
 _atom_site_fract_y
 _atom_site_fract_z
 _atom_site_fract_occupancy
 Al  Al1  1  0.90943  0.20436  0.81886  1
 Al  Al2  1  0.09057  0.79564  0.18114  1
 Al  Al3  1  0.65802  0.31696  0.31605  1
 Al  Al4  1  0.34198  0.68304  0.68395  1
 O  O1  1  0.83907  0.89095  0.67814  1
 O  O2  1  0.16093  0.10905  0.32186  1
 O  O3  1  0.50486  0.74287  0.00973  1
 O  O4  1  0.49514  0.25713  0.99027  1
 O  O5  1  0.17345  0.56649  0.34690  1
 O  O6  1  0.82655  0.43351  0.65310  1
