CIF file written using JARVIS-Tools package.
data_La5C2I9
_symmetry_space_group_name_H-M  'P-1'
_cell_length_a       8.0787
_cell_length_b       10.1482
_cell_length_c       14.4529
_cell_angle_alpha    79.1898
_cell_angle_beta     80.6515
_cell_angle_gamma    85.0113

_symmetry_Int_Tables_number  2
_chemical_formula_structural  La5C2I9
_chemical_formula_sum  La0C4I8
_cell_volume  1146.47059962776
_cell_formula_units_Z  2
loop_
  _symmetry_equiv_pos_site_id
 _symmetry_equiv_pos_as_xyz
 1  'x, y, z'
loop_
 _atom_site_type_symbol
 _atom_site_label
 _atom_site_symmetry_multiplicity
 _atom_site_fract_x
 _atom_site_fract_y
 _atom_site_fract_z
 _atom_site_fract_occupancy
 C  C1  1  0.09300  0.34591  0.24192  1
 C  C2  1  0.95835  0.77659  0.78305  1
 C  C3  1  0.90700  0.65409  0.75808  1
 C  C4  1  0.04165  0.22341  0.21695  1
 I  I1  1  0.88336  0.33900  0.99660  1
 I  I2  1  0.80176  0.68762  0.27431  1
 I  I3  1  0.19824  0.31238  0.72569  1
 I  I4  1  0.42531  0.35037  0.42722  1
 I  I5  1  0.79443  0.00744  0.41199  1
 I  I6  1  0.50529  0.44266  0.86588  1
 I  I7  1  0.57469  0.64963  0.57278  1
 I  I8  1  0.46135  0.84531  0.80151  1
 I  I9  1  0.90475  0.34835  0.47540  1
 I  I10  1  0.53865  0.15469  0.19849  1
 I  I11  1  0.25819  0.85978  0.27286  1
 I  I12  1  0.20557  0.99256  0.58801  1
 I  I13  1  0.25477  0.05620  0.99713  1
 I  I14  1  0.74181  0.14022  0.72714  1
 I  I15  1  0.11664  0.66100  0.00340  1
 I  I16  1  0.74523  0.94380  0.00287  1
 I  I17  1  0.09525  0.65165  0.52460  1
 I  I18  1  0.49471  0.55734  0.13412  1
 La  La1  1  0.05005  0.96739  0.82562  1
 La  La2  1  0.84155  0.46645  0.69705  1
 La  La3  1  0.17848  0.14434  0.36174  1
 La  La4  1  0.76069  0.65992  0.92083  1
 La  La5  1  0.22394  0.63505  0.73747  1
 La  La6  1  0.82152  0.85566  0.63826  1
 La  La7  1  0.94995  0.03261  0.17438  1
 La  La8  1  0.23931  0.34008  0.07917  1
 La  La9  1  0.15845  0.53355  0.30295  1
 La  La10  1  0.77606  0.36495  0.26253  1
