CIF file written using JARVIS-Tools package.
data_Ca3UN4
_symmetry_space_group_name_H-M  'I4/mmm'
_cell_length_a       4.87933
_cell_length_b       4.87912
_cell_length_c       6.05297
_cell_angle_alpha    113.767
_cell_angle_beta     113.77
_cell_angle_gamma    89.9985

_symmetry_Int_Tables_number  139
_chemical_formula_structural  Ca3UN4
_chemical_formula_sum  Ca3UN4
_cell_volume  118.40225684213218
_cell_formula_units_Z  1
loop_
  _symmetry_equiv_pos_site_id
 _symmetry_equiv_pos_as_xyz
 1  'x, y, z'
loop_
 _atom_site_type_symbol
 _atom_site_label
 _atom_site_symmetry_multiplicity
 _atom_site_fract_x
 _atom_site_fract_y
 _atom_site_fract_z
 _atom_site_fract_occupancy
 Ca  Ca1  1  0.74874  0.25086  0.50050  1
 Ca  Ca2  1  0.24874  0.75086  0.50050  1
 Ca  Ca3  1  0.49872  0.50084  0.00047  1
 N  N1  1  0.99874  0.50089  0.00051  1
 N  N2  1  0.20303  0.20515  0.40909  1
 N  N3  1  0.49875  0.00086  0.00051  1
 N  N4  1  0.79446  0.79658  0.59194  1
 U  U1  1  -0.00126  0.00085  0.00051  1
