CIF file written using JARVIS-Tools package.
data_Pb2CBr2O3
_symmetry_space_group_name_H-M  'P4/mbm'
_cell_length_a       8.38191
_cell_length_b       8.38191
_cell_length_c       9.13407
_cell_angle_alpha    90
_cell_angle_beta     90
_cell_angle_gamma    90

_symmetry_Int_Tables_number  127
_chemical_formula_structural  Pb2CBr2O3
_chemical_formula_sum  Pb8C4Br8O2
_cell_volume  641.7271549929108
_cell_formula_units_Z  4
loop_
  _symmetry_equiv_pos_site_id
 _symmetry_equiv_pos_as_xyz
 1  'x, y, z'
loop_
 _atom_site_type_symbol
 _atom_site_label
 _atom_site_symmetry_multiplicity
 _atom_site_fract_x
 _atom_site_fract_y
 _atom_site_fract_z
 _atom_site_fract_occupancy
 Br  Br1  1  0.50000  0.50000  0.23299  1
 Br  Br2  1  0.00000  0.00000  0.23299  1
 Br  Br3  1  0.50000  0.50000  0.76701  1
 Br  Br4  1  0.00000  0.00000  0.76701  1
 Br  Br5  1  0.34996  0.84996  0.50000  1
 Br  Br6  1  0.65004  0.15004  0.50000  1
 Br  Br7  1  0.84996  0.65004  0.50000  1
 Br  Br8  1  0.15004  0.34996  0.50000  1
 C  C1  1  0.32518  0.82518  0.00000  1
 C  C2  1  0.17482  0.32518  0.00000  1
 C  C3  1  0.67482  0.17482  0.00000  1
 C  C4  1  0.82518  0.67482  0.00000  1
 O  O1  1  0.87466  0.62534  0.12567  1
 O  O2  1  0.12534  0.37466  0.12567  1
 O  O3  1  0.71419  0.78581  0.00000  1
 O  O4  1  0.78581  0.28581  0.00000  1
 O  O5  1  0.87466  0.62534  0.87433  1
 O  O6  1  0.28581  0.21419  0.00000  1
 O  O7  1  0.21419  0.71419  0.00000  1
 O  O8  1  0.37466  0.87466  0.87433  1
 O  O9  1  0.12534  0.37466  0.87433  1
 O  O10  1  0.62534  0.12534  0.87433  1
 O  O11  1  0.37466  0.87466  0.12567  1
 O  O12  1  0.62534  0.12534  0.12567  1
 Pb  Pb1  1  0.83886  0.33886  0.74770  1
 Pb  Pb2  1  0.16114  0.66114  0.74770  1
 Pb  Pb3  1  0.83886  0.33886  0.25230  1
 Pb  Pb4  1  0.33886  0.16114  0.74770  1
 Pb  Pb5  1  0.66114  0.83886  0.74770  1
 Pb  Pb6  1  0.66114  0.83886  0.25230  1
 Pb  Pb7  1  0.33886  0.16114  0.25230  1
 Pb  Pb8  1  0.16114  0.66114  0.25230  1
