CIF file written using JARVIS-Tools package.
data_CaTiO3
_symmetry_space_group_name_H-M  'R-3'
_cell_length_a       5.32174
_cell_length_b       5.32164
_cell_length_c       5.88269
_cell_angle_alpha    63.1064
_cell_angle_beta     63.1063
_cell_angle_gamma    59.9981

_symmetry_Int_Tables_number  148
_chemical_formula_structural  CaTiO3
_chemical_formula_sum  Ca2Ti2O6
_cell_volume  123.0336446330516
_cell_formula_units_Z  2
loop_
  _symmetry_equiv_pos_site_id
 _symmetry_equiv_pos_as_xyz
 1  'x, y, z'
loop_
 _atom_site_type_symbol
 _atom_site_label
 _atom_site_symmetry_multiplicity
 _atom_site_fract_x
 _atom_site_fract_y
 _atom_site_fract_z
 _atom_site_fract_occupancy
 Ca  Ca1  1  0.63687  0.63687  0.08939  1
 Ca  Ca2  1  0.36313  0.36313  0.91061  1
 O  O1  1  0.56493  0.97321  0.27450  1
 O  O2  1  0.18737  0.56491  0.27450  1
 O  O3  1  0.02676  0.81266  0.72552  1
 O  O4  1  0.97324  0.18734  0.27448  1
 O  O5  1  0.81263  0.43509  0.72550  1
 O  O6  1  0.43507  0.02679  0.72550  1
 Ti  Ti1  1  0.85084  0.85084  0.44748  1
 Ti  Ti2  1  0.14916  0.14916  0.55252  1
