CIF file written using JARVIS-Tools package.
data_Li2CeO3
_symmetry_space_group_name_H-M  'Cmmm'
_cell_length_a       4.50685
_cell_length_b       5.26178
_cell_length_c       3.54271
_cell_angle_alpha    90
_cell_angle_beta     90
_cell_angle_gamma    64.6427

_symmetry_Int_Tables_number  65
_chemical_formula_structural  Li2CeO3
_chemical_formula_sum  Li2CeO3
_cell_volume  75.91781768609141
_cell_formula_units_Z  1
loop_
  _symmetry_equiv_pos_site_id
 _symmetry_equiv_pos_as_xyz
 1  'x, y, z'
loop_
 _atom_site_type_symbol
 _atom_site_label
 _atom_site_symmetry_multiplicity
 _atom_site_fract_x
 _atom_site_fract_y
 _atom_site_fract_z
 _atom_site_fract_occupancy
 Ce  Ce1  1  0.00000  0.00000  0.00000  1
 Li  Li1  1  0.65531  0.68938  0.50000  1
 Li  Li2  1  0.34469  0.31062  0.50000  1
 O  O1  1  0.14598  0.70803  0.50000  1
 O  O2  1  0.85402  0.29197  0.50000  1
 O  O3  1  0.50000  0.00000  0.00000  1
