CIF file written using JARVIS-Tools package.
data_Tb3Co2Ge4
_symmetry_space_group_name_H-M  'C2/m'
_cell_length_a       4.15458
_cell_length_b       5.74275
_cell_length_c       8.04576
_cell_angle_alpha    106.634
_cell_angle_beta     90
_cell_angle_gamma    111.206

_symmetry_Int_Tables_number  12
_chemical_formula_structural  Tb3Co2Ge4
_chemical_formula_sum  Tb3Co2Ge4
_cell_volume  170.3172923515862
_cell_formula_units_Z  1
loop_
  _symmetry_equiv_pos_site_id
 _symmetry_equiv_pos_as_xyz
 1  'x, y, z'
loop_
 _atom_site_type_symbol
 _atom_site_label
 _atom_site_symmetry_multiplicity
 _atom_site_fract_x
 _atom_site_fract_y
 _atom_site_fract_z
 _atom_site_fract_occupancy
 Co  Co1  1  0.30653  0.61307  0.62699  1
 Co  Co2  1  0.69347  0.38693  0.37301  1
 Ge  Ge1  1  0.90192  0.80384  0.60289  1
 Ge  Ge2  1  0.70723  0.41445  0.08121  1
 Ge  Ge3  1  0.29277  0.58555  0.91879  1
 Ge  Ge4  1  0.09808  0.19616  0.39711  1
 Tb  Tb1  1  0.00000  0.00000  0.00000  1
 Tb  Tb2  1  0.62316  0.24632  0.69265  1
 Tb  Tb3  1  0.37684  0.75368  0.30735  1
