CIF file written using JARVIS-Tools package.
data_RbHO
_symmetry_space_group_name_H-M  'Pnma'
_cell_length_a       4.00512
_cell_length_b       6.48417
_cell_length_c       7.93008
_cell_angle_alpha    90
_cell_angle_beta     90
_cell_angle_gamma    90

_symmetry_Int_Tables_number  62
_chemical_formula_structural  RbHO
_chemical_formula_sum  Rb4H4O4
_cell_volume  205.94339612349276
_cell_formula_units_Z  4
loop_
  _symmetry_equiv_pos_site_id
 _symmetry_equiv_pos_as_xyz
 1  'x, y, z'
loop_
 _atom_site_type_symbol
 _atom_site_label
 _atom_site_symmetry_multiplicity
 _atom_site_fract_x
 _atom_site_fract_y
 _atom_site_fract_z
 _atom_site_fract_occupancy
 H  H1  1  0.75000  0.06621  0.54440  1
 H  H2  1  0.25000  0.43379  0.04440  1
 H  H3  1  0.75000  0.56621  0.95560  1
 H  H4  1  0.25000  0.93379  0.45560  1
 O  O1  1  0.25000  0.79057  0.41756  1
 O  O2  1  0.75000  0.70943  0.91756  1
 O  O3  1  0.25000  0.29057  0.08244  1
 O  O4  1  0.75000  0.20943  0.58244  1
 Rb  Rb1  1  0.25000  0.99219  0.80823  1
 Rb  Rb2  1  0.75000  0.50781  0.30823  1
 Rb  Rb3  1  0.25000  0.49219  0.69177  1
 Rb  Rb4  1  0.75000  0.00781  0.19177  1
