CIF file written using JARVIS-Tools package.
data_Rb2Ni3Se4
_symmetry_space_group_name_H-M  'Fddd'
_cell_length_a       6.10454
_cell_length_b       6.1332
_cell_length_c       13.9159
_cell_angle_alpha    83.7333
_cell_angle_beta     77.3299
_cell_angle_gamma    60.1544

_symmetry_Int_Tables_number  70
_chemical_formula_structural  Rb2Ni3Se4
_chemical_formula_sum  Rb4Ni6Se8
_cell_volume  440.9090660641762
_cell_formula_units_Z  2
loop_
  _symmetry_equiv_pos_site_id
 _symmetry_equiv_pos_as_xyz
 1  'x, y, z'
loop_
 _atom_site_type_symbol
 _atom_site_label
 _atom_site_symmetry_multiplicity
 _atom_site_fract_x
 _atom_site_fract_y
 _atom_site_fract_z
 _atom_site_fract_occupancy
 Ni  Ni1  1  0.37456  0.75000  0.25089  1
 Ni  Ni2  1  0.87500  0.25000  0.25000  1
 Ni  Ni3  1  0.12456  0.25000  0.75089  1
 Ni  Ni4  1  0.12500  0.75000  0.75000  1
 Ni  Ni5  1  0.62544  0.25000  0.74911  1
 Ni  Ni6  1  0.87544  0.75000  0.24911  1
 Rb  Rb1  1  0.29846  0.25000  0.40309  1
 Rb  Rb2  1  0.54846  0.75000  0.90309  1
 Rb  Rb3  1  0.70154  0.75000  0.59691  1
 Rb  Rb4  1  0.45154  0.25000  0.09691  1
 Se  Se1  1  0.10076  0.91728  0.13618  1
 Se  Se2  1  0.23694  0.41728  0.86382  1
 Se  Se3  1  0.01804  0.08272  0.63618  1
 Se  Se4  1  0.89924  0.08272  0.86382  1
 Se  Se5  1  0.76306  0.58272  0.13618  1
 Se  Se6  1  0.98196  0.91728  0.36382  1
 Se  Se7  1  0.65422  0.58272  0.36382  1
 Se  Se8  1  0.34578  0.41728  0.63618  1
