CIF file written using JARVIS-Tools package.
data_LiFe3O3F4
_symmetry_space_group_name_H-M  'R3m'
_cell_length_a       5.10583
_cell_length_b       5.10583
_cell_length_c       5.10583
_cell_angle_alpha    104.256
_cell_angle_beta     104.256
_cell_angle_gamma    104.256

_symmetry_Int_Tables_number  160
_chemical_formula_structural  LiFe3O3F4
_chemical_formula_sum  LiFe3O3F4
_cell_volume  118.17432595904194
_cell_formula_units_Z  1
loop_
  _symmetry_equiv_pos_site_id
 _symmetry_equiv_pos_as_xyz
 1  'x, y, z'
loop_
 _atom_site_type_symbol
 _atom_site_label
 _atom_site_symmetry_multiplicity
 _atom_site_fract_x
 _atom_site_fract_y
 _atom_site_fract_z
 _atom_site_fract_occupancy
 F  F1  1  0.20332  0.82865  0.82865  1
 F  F2  1  0.23008  0.23008  0.23008  1
 F  F3  1  0.82865  0.82865  0.20332  1
 F  F4  1  0.82865  0.20332  0.82865  1
 Fe  Fe1  1  0.17264  0.52975  0.52975  1
 Fe  Fe2  1  0.52975  0.52975  0.17264  1
 Fe  Fe3  1  0.52975  0.17264  0.52975  1
 Li  Li1  1  0.92638  0.92638  0.92638  1
 O  O1  1  0.39796  0.76781  0.39796  1
 O  O2  1  0.39796  0.39796  0.76781  1
 O  O3  1  0.76781  0.39796  0.39796  1
