CIF file written using JARVIS-Tools package.
data_LiCrSiO4
_symmetry_space_group_name_H-M  'P4_322'
_cell_length_a       5.65534
_cell_length_b       5.65534
_cell_length_c       7.98451
_cell_angle_alpha    90
_cell_angle_beta     90
_cell_angle_gamma    90

_symmetry_Int_Tables_number  95
_chemical_formula_structural  LiCrSiO4
_chemical_formula_sum  Li4Cr4Si4O6
_cell_volume  255.3677771622998
_cell_formula_units_Z  4
loop_
  _symmetry_equiv_pos_site_id
 _symmetry_equiv_pos_as_xyz
 1  'x, y, z'
loop_
 _atom_site_type_symbol
 _atom_site_label
 _atom_site_symmetry_multiplicity
 _atom_site_fract_x
 _atom_site_fract_y
 _atom_site_fract_z
 _atom_site_fract_occupancy
 Cr  Cr1  1  0.23476  0.50000  0.25000  1
 Cr  Cr2  1  0.50000  0.23476  0.00000  1
 Cr  Cr3  1  0.50000  0.76524  0.50000  1
 Cr  Cr4  1  0.76524  0.50000  0.75000  1
 Li  Li1  1  0.00000  0.22154  0.00000  1
 Li  Li2  1  0.00000  0.77846  0.50000  1
 Li  Li3  1  0.22154  0.00000  0.25000  1
 Li  Li4  1  0.77846  0.00000  0.75000  1
 O  O1  1  0.98720  0.73968  0.23966  1
 O  O2  1  0.26007  0.50333  0.00043  1
 O  O3  1  0.26007  0.49667  0.49957  1
 O  O4  1  0.98720  0.26032  0.26034  1
 O  O5  1  0.26032  0.98720  0.98966  1
 O  O6  1  0.01280  0.26032  0.73966  1
 O  O7  1  0.50333  0.73993  0.25043  1
 O  O8  1  0.26032  0.01280  0.51034  1
 O  O9  1  0.49667  0.26007  0.75043  1
 O  O10  1  0.73968  0.01280  0.48966  1
 O  O11  1  0.73993  0.49667  0.50043  1
 O  O12  1  0.73993  0.50333  0.99957  1
 O  O13  1  0.50333  0.26007  0.24957  1
 O  O14  1  0.73968  0.98720  0.01034  1
 O  O15  1  0.49667  0.73993  0.74957  1
 O  O16  1  0.01280  0.73968  0.76034  1
 Si  Si1  1  0.25491  0.25491  0.62500  1
 Si  Si2  1  0.25491  0.74509  0.87500  1
 Si  Si3  1  0.74509  0.25491  0.37500  1
 Si  Si4  1  0.74509  0.74509  0.12500  1
