CIF file written using JARVIS-Tools package.
data_Rb2CuCl4
_symmetry_space_group_name_H-M  'Cmce'
_cell_length_a       6.92959
_cell_length_b       6.92949
_cell_length_c       8.69006
_cell_angle_alpha    113.497
_cell_angle_beta     90
_cell_angle_gamma    90

_symmetry_Int_Tables_number  64
_chemical_formula_structural  Rb2CuCl4
_chemical_formula_sum  Rb4Cu2Cl8
_cell_volume  382.68335117677657
_cell_formula_units_Z  2
loop_
  _symmetry_equiv_pos_site_id
 _symmetry_equiv_pos_as_xyz
 1  'x, y, z'
loop_
 _atom_site_type_symbol
 _atom_site_label
 _atom_site_symmetry_multiplicity
 _atom_site_fract_x
 _atom_site_fract_y
 _atom_site_fract_z
 _atom_site_fract_occupancy
 Cl  Cl1  1  0.50000  0.65362  0.30725  1
 Cl  Cl2  1  0.00000  0.84638  0.69275  1
 Cl  Cl3  1  0.50000  0.34638  0.69275  1
 Cl  Cl4  1  0.00000  0.15362  0.30725  1
 Cl  Cl5  1  0.76152  0.23848  0.00000  1
 Cl  Cl6  1  0.26152  0.26152  -0.00000  1
 Cl  Cl7  1  0.23848  0.76152  -0.00000  1
 Cl  Cl8  1  0.73848  0.73848  0.00000  1
 Cu  Cu1  1  0.00000  0.00000  0.00000  1
 Cu  Cu2  1  0.50000  0.50000  0.00000  1
 Rb  Rb1  1  0.50000  0.14157  0.28315  1
 Rb  Rb2  1  0.00000  0.35843  0.71685  1
 Rb  Rb3  1  0.00000  0.64157  0.28315  1
 Rb  Rb4  1  0.50000  0.85843  0.71685  1
