CIF file written using JARVIS-Tools package.
data_Mn3O2F4
_symmetry_space_group_name_H-M  'C2/m'
_cell_length_a       7.07541
_cell_length_b       5.71134
_cell_length_c       5.71134
_cell_angle_alpha    76.6805
_cell_angle_beta     74.4828
_cell_angle_gamma    74.4828

_symmetry_Int_Tables_number  12
_chemical_formula_structural  Mn3O2F4
_chemical_formula_sum  Mn6O4F8
_cell_volume  211.11920695143425
_cell_formula_units_Z  2
loop_
  _symmetry_equiv_pos_site_id
 _symmetry_equiv_pos_as_xyz
 1  'x, y, z'
loop_
 _atom_site_type_symbol
 _atom_site_label
 _atom_site_symmetry_multiplicity
 _atom_site_fract_x
 _atom_site_fract_y
 _atom_site_fract_z
 _atom_site_fract_occupancy
 F  F1  1  0.00000  0.69770  0.30230  1
 F  F2  1  0.32599  0.97169  0.35743  1
 F  F3  1  0.68989  0.12031  0.12031  1
 F  F4  1  0.31011  0.87969  0.87969  1
 F  F5  1  0.32599  0.35743  0.97169  1
 F  F6  1  0.67401  0.02831  0.64257  1
 F  F7  1  -0.00000  0.30230  0.69770  1
 F  F8  1  0.67401  0.64257  0.02831  1
 Mn  Mn1  1  0.83684  0.66856  0.66856  1
 Mn  Mn2  1  0.00000  0.00000  0.00000  1
 Mn  Mn3  1  0.50000  -0.00000  0.00000  1
 Mn  Mn4  1  0.16316  0.33144  0.33144  1
 Mn  Mn5  1  0.32917  0.64921  0.64921  1
 Mn  Mn6  1  0.67083  0.35079  0.35079  1
 O  O1  1  0.95937  0.23831  0.23831  1
 O  O2  1  0.37191  0.42814  0.42814  1
 O  O3  1  0.04063  0.76169  0.76169  1
 O  O4  1  0.62809  0.57186  0.57186  1
