CIF file written using JARVIS-Tools package.
data_LiMn2Fe3O8
_symmetry_space_group_name_H-M  'Imm2'
_cell_length_a       5.75664
_cell_length_b       5.74688
_cell_length_c       5.74688
_cell_angle_alpha    60.1946
_cell_angle_beta     59.9439
_cell_angle_gamma    59.9439

_symmetry_Int_Tables_number  44
_chemical_formula_structural  LiMn2Fe3O8
_chemical_formula_sum  LiMn2Fe3O8
_cell_volume  134.51913697565496
_cell_formula_units_Z  1
loop_
  _symmetry_equiv_pos_site_id
 _symmetry_equiv_pos_as_xyz
 1  'x, y, z'
loop_
 _atom_site_type_symbol
 _atom_site_label
 _atom_site_symmetry_multiplicity
 _atom_site_fract_x
 _atom_site_fract_y
 _atom_site_fract_z
 _atom_site_fract_occupancy
 Fe  Fe1  1  0.00804  0.49768  0.49768  1
 Fe  Fe2  1  0.49661  0.49768  0.49768  1
 Fe  Fe3  1  0.87343  0.87657  0.87657  1
 Li  Li1  1  0.12535  0.12465  0.12465  1
 Mn  Mn1  1  0.49763  0.49891  0.00582  1
 Mn  Mn2  1  0.49763  0.00582  0.49891  1
 O  O1  1  0.71541  0.25975  0.25975  1
 O  O2  1  0.26510  0.25975  0.25975  1
 O  O3  1  0.26235  0.71549  0.25982  1
 O  O4  1  0.26235  0.25982  0.71549  1
 O  O5  1  0.73803  0.73724  0.28670  1
 O  O6  1  0.73803  0.28670  0.73724  1
 O  O7  1  0.73794  0.73998  0.73998  1
 O  O8  1  0.28211  0.73998  0.73998  1
