CIF file written using JARVIS-Tools package.
data_Mn8O13F3
_symmetry_space_group_name_H-M  'P1'
_cell_length_a       4.87996
_cell_length_b       5.44703
_cell_length_c       8.78858
_cell_angle_alpha    89.2954
_cell_angle_beta     89.7096
_cell_angle_gamma    89.6223

_symmetry_Int_Tables_number  1
_chemical_formula_structural  Mn8O13F3
_chemical_formula_sum  Mn8O3F3
_cell_volume  233.5859863056687
_cell_formula_units_Z  1
loop_
  _symmetry_equiv_pos_site_id
 _symmetry_equiv_pos_as_xyz
 1  'x, y, z'
loop_
 _atom_site_type_symbol
 _atom_site_label
 _atom_site_symmetry_multiplicity
 _atom_site_fract_x
 _atom_site_fract_y
 _atom_site_fract_z
 _atom_site_fract_occupancy
 F  F1  1  0.93208  0.89680  0.88303  1
 F  F2  1  0.56515  0.35982  0.62221  1
 F  F3  1  0.91738  0.37186  0.37440  1
 Mn  Mn1  1  0.74379  0.64684  0.74887  1
 Mn  Mn2  1  0.22915  0.35753  0.75431  1
 Mn  Mn3  1  0.75020  0.16910  0.00618  1
 Mn  Mn4  1  0.24686  0.85262  0.49825  1
 Mn  Mn5  1  0.74785  0.66327  0.24753  1
 Mn  Mn6  1  0.26814  0.86020  0.00434  1
 Mn  Mn7  1  0.26491  0.35766  0.24732  1
 Mn  Mn8  1  0.74660  0.10858  0.50107  1
 O  O1  1  0.92429  0.87823  0.38337  1
 O  O2  1  0.08683  0.12364  0.11726  1
 O  O3  1  0.58922  0.89371  0.11379  1
 O  O4  1  0.58865  0.39511  0.13778  1
 O  O5  1  0.41905  0.61678  0.36753  1
 O  O6  1  0.08442  0.62086  0.13572  1
 O  O7  1  0.07130  0.10490  0.61726  1
 O  O8  1  0.57311  0.87465  0.61430  1
 O  O9  1  0.91335  0.39163  0.86475  1
 O  O10  1  0.41431  0.61827  0.86410  1
 O  O11  1  0.42535  0.12248  0.88380  1
 O  O12  1  0.42183  0.10686  0.38255  1
 O  O13  1  0.07618  0.60861  0.63028  1
