CIF file written using JARVIS-Tools package.
data_TiMnSi2
_symmetry_space_group_name_H-M  'Pbam'
_cell_length_a       7.69562
_cell_length_b       8.6847
_cell_length_c       9.49565
_cell_angle_alpha    90
_cell_angle_beta     90
_cell_angle_gamma    90

_symmetry_Int_Tables_number  55
_chemical_formula_structural  TiMnSi2
_chemical_formula_sum  Ti2Mn2Si24
_cell_volume  634.6332834922807
_cell_formula_units_Z  12
loop_
  _symmetry_equiv_pos_site_id
 _symmetry_equiv_pos_as_xyz
 1  'x, y, z'
loop_
 _atom_site_type_symbol
 _atom_site_label
 _atom_site_symmetry_multiplicity
 _atom_site_fract_x
 _atom_site_fract_y
 _atom_site_fract_z
 _atom_site_fract_occupancy
 Mn  Mn1  1  0.75631  0.00000  0.00000  1
 Mn  Mn2  1  0.24817  0.08441  0.25314  1
 Mn  Mn3  1  0.75631  0.50000  0.50000  1
 Mn  Mn4  1  0.24369  0.00000  0.00000  1
 Mn  Mn5  1  0.24817  0.91559  0.74686  1
 Mn  Mn6  1  0.75183  0.58441  0.24686  1
 Mn  Mn7  1  0.75183  0.41559  0.75314  1
 Mn  Mn8  1  0.75183  0.91559  0.74686  1
 Mn  Mn9  1  0.75183  0.08441  0.25314  1
 Mn  Mn10  1  0.24817  0.58441  0.24686  1
 Mn  Mn11  1  0.24369  0.50000  0.50000  1
 Mn  Mn12  1  0.24817  0.41559  0.75314  1
 Si  Si1  1  0.50000  0.87436  0.90429  1
 Si  Si2  1  0.00000  0.62957  0.39729  1
 Si  Si3  1  0.00000  0.87043  0.89729  1
 Si  Si4  1  0.50000  0.37436  0.59571  1
 Si  Si5  1  0.50000  0.62564  0.40429  1
 Si  Si6  1  0.65497  0.66822  0.68228  1
 Si  Si7  1  0.65497  0.16822  0.81772  1
 Si  Si8  1  0.34503  0.16822  0.81772  1
 Si  Si9  1  0.34503  0.83178  0.18228  1
 Si  Si10  1  0.34503  0.33178  0.31772  1
 Si  Si11  1  0.00000  0.12957  0.10271  1
 Si  Si12  1  0.50000  0.96300  0.62293  1
 Si  Si13  1  0.50000  0.53700  0.12293  1
 Si  Si14  1  0.00000  0.37043  0.60271  1
 Si  Si15  1  0.50000  0.46300  0.87707  1
 Si  Si16  1  0.65497  0.83178  0.18228  1
 Si  Si17  1  0.00000  0.03773  0.37922  1
 Si  Si18  1  0.34503  0.66822  0.68228  1
 Si  Si19  1  0.00000  0.53773  0.12078  1
 Si  Si20  1  0.00000  0.46227  0.87922  1
 Si  Si21  1  0.65497  0.33178  0.31772  1
 Si  Si22  1  0.50000  0.03700  0.37707  1
 Si  Si23  1  0.50000  0.12564  0.09571  1
 Si  Si24  1  0.00000  0.96227  0.62078  1
 Ti  Ti1  1  0.23963  0.17185  0.54686  1
 Ti  Ti2  1  0.76037  0.32815  0.04686  1
 Ti  Ti3  1  0.76037  0.67185  0.95314  1
 Ti  Ti4  1  0.76037  0.17185  0.54686  1
 Ti  Ti5  1  0.76037  0.82815  0.45314  1
 Ti  Ti6  1  0.00000  0.33111  0.32064  1
 Ti  Ti7  1  0.23963  0.32815  0.04686  1
 Ti  Ti8  1  0.00000  0.66889  0.67936  1
 Ti  Ti9  1  0.00000  0.83111  0.17936  1
 Ti  Ti10  1  0.00000  0.16889  0.82064  1
 Ti  Ti11  1  0.23963  0.67185  0.95314  1
 Ti  Ti12  1  0.23963  0.82815  0.45314  1
