CIF file written using JARVIS-Tools package.
data_LiFePO4
_symmetry_space_group_name_H-M  'Pnma'
_cell_length_a       4.92412
_cell_length_b       6.08906
_cell_length_c       9.39175
_cell_angle_alpha    89.9993
_cell_angle_beta     89.9992
_cell_angle_gamma    89.9977

_symmetry_Int_Tables_number  62
_chemical_formula_structural  LiFePO4
_chemical_formula_sum  Li4Fe4P4O6
_cell_volume  281.59552824637154
_cell_formula_units_Z  4
loop_
  _symmetry_equiv_pos_site_id
 _symmetry_equiv_pos_as_xyz
 1  'x, y, z'
loop_
 _atom_site_type_symbol
 _atom_site_label
 _atom_site_symmetry_multiplicity
 _atom_site_fract_x
 _atom_site_fract_y
 _atom_site_fract_z
 _atom_site_fract_occupancy
 Fe  Fe1  1  0.00000  0.00000  0.00000  1
 Fe  Fe2  1  -0.00000  0.50000  0.00000  1
 Fe  Fe3  1  0.50000  0.00000  0.50000  1
 Fe  Fe4  1  0.50000  0.50000  0.50000  1
 Li  Li1  1  0.47743  0.24998  0.16751  1
 Li  Li2  1  0.97743  0.74997  0.33249  1
 Li  Li3  1  0.02257  0.25003  0.66751  1
 Li  Li4  1  0.52257  0.75002  0.83249  1
 O  O1  1  0.33906  0.54126  0.11514  1
 O  O2  1  0.28038  0.24997  0.35546  1
 O  O3  1  0.40150  0.74999  0.34200  1
 O  O4  1  0.33906  0.95872  0.11513  1
 O  O5  1  0.78038  0.74998  0.14454  1
 O  O6  1  0.66094  0.45874  0.88486  1
 O  O7  1  0.83906  0.04125  0.38486  1
 O  O8  1  0.90150  0.24999  0.15800  1
 O  O9  1  0.16094  0.95875  0.61514  1
 O  O10  1  0.09850  0.75001  0.84200  1
 O  O11  1  0.71962  0.75003  0.64454  1
 O  O12  1  0.59850  0.25001  0.65800  1
 O  O13  1  0.83905  0.45870  0.38487  1
 O  O14  1  0.21962  0.25002  0.85546  1
 O  O15  1  0.16095  0.54130  0.61513  1
 O  O16  1  0.66094  0.04128  0.88487  1
 P  P1  1  0.47028  0.74998  0.17793  1
 P  P2  1  0.97028  0.24998  0.32207  1
 P  P3  1  0.02972  0.75002  0.67793  1
 P  P4  1  0.52972  0.25002  0.82207  1
