CIF file written using JARVIS-Tools package.
data_FeP
_symmetry_space_group_name_H-M  'Pnma'
_cell_length_a       3.10274
_cell_length_b       5.15533
_cell_length_c       5.75614
_cell_angle_alpha    90
_cell_angle_beta     90
_cell_angle_gamma    90

_symmetry_Int_Tables_number  62
_chemical_formula_structural  FeP
_chemical_formula_sum  Fe4P4
_cell_volume  92.07303181703544
_cell_formula_units_Z  4
loop_
  _symmetry_equiv_pos_site_id
 _symmetry_equiv_pos_as_xyz
 1  'x, y, z'
loop_
 _atom_site_type_symbol
 _atom_site_label
 _atom_site_symmetry_multiplicity
 _atom_site_fract_x
 _atom_site_fract_y
 _atom_site_fract_z
 _atom_site_fract_occupancy
 Fe  Fe1  1  0.25000  0.49974  0.70211  1
 Fe  Fe2  1  0.75000  0.50026  0.29789  1
 Fe  Fe3  1  0.75000  0.00026  0.20211  1
 Fe  Fe4  1  0.25000  -0.00026  0.79789  1
 P  P1  1  0.25000  0.69358  0.07001  1
 P  P2  1  0.75000  0.30642  0.92999  1
 P  P3  1  0.75000  0.80642  0.57001  1
 P  P4  1  0.25000  0.19358  0.42999  1
