CIF file written using JARVIS-Tools package.
data_LiMnP2HO7
_symmetry_space_group_name_H-M  'P-1'
_cell_length_a       6.59167
_cell_length_b       6.47117
_cell_length_c       6.49106
_cell_angle_alpha    82.6731
_cell_angle_beta     69.2639
_cell_angle_gamma    87.7097

_symmetry_Int_Tables_number  2
_chemical_formula_structural  LiMnP2HO7
_chemical_formula_sum  Li2Mn2P4H2O4
_cell_volume  256.8268373401563
_cell_formula_units_Z  2
loop_
  _symmetry_equiv_pos_site_id
 _symmetry_equiv_pos_as_xyz
 1  'x, y, z'
loop_
 _atom_site_type_symbol
 _atom_site_label
 _atom_site_symmetry_multiplicity
 _atom_site_fract_x
 _atom_site_fract_y
 _atom_site_fract_z
 _atom_site_fract_occupancy
 H  H1  1  0.49939  0.15926  0.34708  1
 H  H2  1  0.50061  0.84074  0.65292  1
 Li  Li1  1  0.15728  0.10347  0.77643  1
 Li  Li2  1  0.84272  0.89653  0.22357  1
 Mn  Mn1  1  0.72357  0.34707  0.89526  1
 Mn  Mn2  1  0.27643  0.65293  0.10474  1
 O  O1  1  0.35229  0.07923  0.39176  1
 O  O2  1  0.16567  0.98112  0.12532  1
 O  O3  1  0.01501  0.24726  0.39010  1
 O  O4  1  0.71788  0.26536  0.23194  1
 O  O5  1  0.36280  0.32625  0.05190  1
 O  O6  1  0.83433  0.01888  0.87468  1
 O  O7  1  0.07872  0.40205  0.77253  1
 O  O8  1  0.92128  0.59795  0.22747  1
 O  O9  1  0.28212  0.73464  0.76806  1
 O  O10  1  0.63720  0.67375  0.94810  1
 O  O11  1  0.66871  0.40691  0.59752  1
 O  O12  1  0.98499  0.75274  0.60990  1
 O  O13  1  0.33129  0.59309  0.40248  1
 O  O14  1  0.64771  0.92077  0.60824  1
 P  P1  1  0.76981  0.84295  0.77364  1
 P  P2  1  0.18613  0.60563  0.63930  1
 P  P3  1  0.81387  0.39437  0.36070  1
 P  P4  1  0.23019  0.15705  0.22636  1
