CIF file written using JARVIS-Tools package.
data_Pr2Fe17
_symmetry_space_group_name_H-M  'R-3m'
_cell_length_a       6.33645
_cell_length_b       6.33645
_cell_length_c       6.33644
_cell_angle_alpha    82.5512
_cell_angle_beta     82.5512
_cell_angle_gamma    82.5512

_symmetry_Int_Tables_number  166
_chemical_formula_structural  Pr2Fe17
_chemical_formula_sum  Pr2Fe7
_cell_volume  248.48305652838988
_cell_formula_units_Z  1
loop_
  _symmetry_equiv_pos_site_id
 _symmetry_equiv_pos_as_xyz
 1  'x, y, z'
loop_
 _atom_site_type_symbol
 _atom_site_label
 _atom_site_symmetry_multiplicity
 _atom_site_fract_x
 _atom_site_fract_y
 _atom_site_fract_z
 _atom_site_fract_occupancy
 Fe  Fe1  1  0.33443  0.33443  0.84906  1
 Fe  Fe2  1  0.33443  0.84906  0.33443  1
 Fe  Fe3  1  0.09100  0.09100  0.09100  1
 Fe  Fe4  1  0.90900  0.90900  0.90900  1
 Fe  Fe5  1  0.00000  0.00000  0.50000  1
 Fe  Fe6  1  0.50000  -0.00000  0.00000  1
 Fe  Fe7  1  -0.00000  0.50000  0.00000  1
 Fe  Fe8  1  0.28533  0.71467  -0.00000  1
 Fe  Fe9  1  -0.00000  0.28533  0.71467  1
 Fe  Fe10  1  0.71467  0.00000  0.28533  1
 Fe  Fe11  1  0.00000  0.71467  0.28533  1
 Fe  Fe12  1  0.28533  -0.00000  0.71467  1
 Fe  Fe13  1  0.66557  0.15094  0.66557  1
 Fe  Fe14  1  0.66557  0.66557  0.15094  1
 Fe  Fe15  1  0.15094  0.66557  0.66557  1
 Fe  Fe16  1  0.84906  0.33443  0.33443  1
 Fe  Fe17  1  0.71467  0.28533  0.00000  1
 Pr  Pr1  1  0.65508  0.65508  0.65508  1
 Pr  Pr2  1  0.34492  0.34492  0.34492  1
