CIF file written using JARVIS-Tools package.
data_KCr2S4
_symmetry_space_group_name_H-M  'C2/m'
_cell_length_a       7.94425
_cell_length_b       7.94425
_cell_length_c       5.51368
_cell_angle_alpha    78.4842
_cell_angle_beta     78.4842
_cell_angle_gamma    23.241

_symmetry_Int_Tables_number  12
_chemical_formula_structural  KCr2S4
_chemical_formula_sum  KCr2S4
_cell_volume  134.42829091972527
_cell_formula_units_Z  1
loop_
  _symmetry_equiv_pos_site_id
 _symmetry_equiv_pos_as_xyz
 1  'x, y, z'
loop_
 _atom_site_type_symbol
 _atom_site_label
 _atom_site_symmetry_multiplicity
 _atom_site_fract_x
 _atom_site_fract_y
 _atom_site_fract_z
 _atom_site_fract_occupancy
 Cr  Cr1  1  0.75374  0.75374  0.19377  1
 Cr  Cr2  1  0.24626  0.24626  0.80623  1
 K  K1  1  0.50000  0.50000  0.50000  1
 S  S1  1  0.35466  0.35466  0.02199  1
 S  S2  1  0.64534  0.64534  0.97801  1
 S  S3  1  0.82817  0.82817  0.53548  1
 S  S4  1  0.17183  0.17183  0.46452  1
