CIF file written using JARVIS-Tools package.
data_Mn3O4F2
_symmetry_space_group_name_H-M  'P1'
_cell_length_a       4.57296
_cell_length_b       5.46386
_cell_length_c       7.49732
_cell_angle_alpha    84.4785
_cell_angle_beta     88.3051
_cell_angle_gamma    87.6606

_symmetry_Int_Tables_number  1
_chemical_formula_structural  Mn3O4F2
_chemical_formula_sum  Mn6O8F4
_cell_volume  186.24144426397663
_cell_formula_units_Z  2
loop_
  _symmetry_equiv_pos_site_id
 _symmetry_equiv_pos_as_xyz
 1  'x, y, z'
loop_
 _atom_site_type_symbol
 _atom_site_label
 _atom_site_symmetry_multiplicity
 _atom_site_fract_x
 _atom_site_fract_y
 _atom_site_fract_z
 _atom_site_fract_occupancy
 F  F1  1  0.21468  0.96687  0.24216  1
 F  F2  1  0.78389  0.02638  0.76987  1
 F  F3  1  0.19876  0.63870  0.55086  1
 F  F4  1  0.70288  0.20182  0.10444  1
 Mn  Mn1  1  0.02396  0.99095  -0.00137  1
 Mn  Mn2  1  0.48626  0.50809  0.99429  1
 Mn  Mn3  1  -0.00052  0.33317  0.67282  1
 Mn  Mn4  1  0.50879  0.18450  0.35344  1
 Mn  Mn5  1  0.50067  0.82588  0.66183  1
 Mn  Mn6  1  0.97621  0.65591  0.31952  1
 O  O1  1  0.18584  0.28139  0.89798  1
 O  O2  1  0.29816  0.78804  0.88985  1
 O  O3  1  0.30348  0.13088  0.56938  1
 O  O4  1  0.68817  0.53327  0.76957  1
 O  O5  1  0.81062  0.71090  0.10272  1
 O  O6  1  0.80563  0.37879  0.43716  1
 O  O7  1  0.70800  0.87986  0.43661  1
 O  O8  1  0.30451  0.46461  0.22887  1
