CIF file written using JARVIS-Tools package.
data_Li5BO4
_symmetry_space_group_name_H-M  'Pmmn'
_cell_length_a       4.51381
_cell_length_b       5.89931
_cell_length_c       6.01211
_cell_angle_alpha    90
_cell_angle_beta     90
_cell_angle_gamma    90

_symmetry_Int_Tables_number  59
_chemical_formula_structural  Li5BO4
_chemical_formula_sum  Li0B2O8
_cell_volume  160.0922984072469
_cell_formula_units_Z  2
loop_
  _symmetry_equiv_pos_site_id
 _symmetry_equiv_pos_as_xyz
 1  'x, y, z'
loop_
 _atom_site_type_symbol
 _atom_site_label
 _atom_site_symmetry_multiplicity
 _atom_site_fract_x
 _atom_site_fract_y
 _atom_site_fract_z
 _atom_site_fract_occupancy
 B  B1  1  0.22102  0.00000  0.50000  1
 B  B2  1  0.77898  0.50000  0.00000  1
 Li  Li1  1  0.25834  0.73983  0.19834  1
 Li  Li2  1  0.25834  0.26017  0.19834  1
 Li  Li3  1  0.82345  0.00000  0.00000  1
 Li  Li4  1  0.25834  0.73983  0.80166  1
 Li  Li5  1  0.25834  0.26017  0.80166  1
 Li  Li6  1  0.74166  0.76017  0.69834  1
 Li  Li7  1  0.74166  0.23983  0.69834  1
 Li  Li8  1  0.17655  0.50000  0.50000  1
 Li  Li9  1  0.74166  0.76017  0.30166  1
 Li  Li10  1  0.74166  0.23983  0.30166  1
 O  O1  1  0.40628  0.78533  0.50000  1
 O  O2  1  0.40628  0.21467  0.50000  1
 O  O3  1  0.96803  0.50000  0.21032  1
 O  O4  1  0.59372  0.71467  0.00000  1
 O  O5  1  0.59372  0.28533  0.00000  1
 O  O6  1  0.96803  0.50000  0.78968  1
 O  O7  1  0.03197  0.00000  0.71032  1
 O  O8  1  0.03197  0.00000  0.28968  1
