CIF file written using JARVIS-Tools package.
data_Sr2CuClO2
_symmetry_space_group_name_H-M  'R-3m'
_cell_length_a       4.01656
_cell_length_b       4.01656
_cell_length_c       27.6349
_cell_angle_alpha    90
_cell_angle_beta     90
_cell_angle_gamma    120

_symmetry_Int_Tables_number  166
_chemical_formula_structural  Sr2CuClO2
_chemical_formula_sum  Sr6Cu3Cl3O6
_cell_volume  386.09638207239925
_cell_formula_units_Z  3
loop_
  _symmetry_equiv_pos_site_id
 _symmetry_equiv_pos_as_xyz
 1  'x, y, z'
loop_
 _atom_site_type_symbol
 _atom_site_label
 _atom_site_symmetry_multiplicity
 _atom_site_fract_x
 _atom_site_fract_y
 _atom_site_fract_z
 _atom_site_fract_occupancy
 Cl  Cl1  1  0.33409  0.00000  0.83333  1
 Cl  Cl2  1  0.66591  0.66591  0.50000  1
 Cl  Cl3  1  -0.00000  0.33409  0.16667  1
 Cu  Cu1  1  0.00000  0.33272  0.66667  1
 Cu  Cu2  1  0.66728  0.66728  0.00000  1
 Cu  Cu3  1  0.33272  -0.00000  0.33333  1
 O  O1  1  0.33249  0.99942  0.39915  1
 O  O2  1  0.66751  0.66693  0.93418  1
 O  O3  1  0.99942  0.33249  0.60085  1
 O  O4  1  0.66693  0.66751  0.06582  1
 O  O5  1  0.33307  0.00058  0.26752  1
 O  O6  1  0.00058  0.33307  0.73248  1
 Sr  Sr1  1  0.00083  0.33360  0.90994  1
 Sr  Sr2  1  0.99917  0.33277  0.42339  1
 Sr  Sr3  1  0.66723  0.66640  0.75672  1
 Sr  Sr4  1  0.33360  0.00083  0.09006  1
 Sr  Sr5  1  0.66640  0.66723  0.24328  1
 Sr  Sr6  1  0.33277  0.99917  0.57661  1
