CIF file written using JARVIS-Tools package.
data_TiAu
_symmetry_space_group_name_H-M  'Pmma'
_cell_length_a       2.99638
_cell_length_b       4.61389
_cell_length_c       4.91319
_cell_angle_alpha    90
_cell_angle_beta     90
_cell_angle_gamma    90

_symmetry_Int_Tables_number  51
_chemical_formula_structural  TiAu
_chemical_formula_sum  Ti2Au2
_cell_volume  67.92475226664138
_cell_formula_units_Z  2
loop_
  _symmetry_equiv_pos_site_id
 _symmetry_equiv_pos_as_xyz
 1  'x, y, z'
loop_
 _atom_site_type_symbol
 _atom_site_label
 _atom_site_symmetry_multiplicity
 _atom_site_fract_x
 _atom_site_fract_y
 _atom_site_fract_z
 _atom_site_fract_occupancy
 Au  Au1  1  0.50000  0.75000  0.81767  1
 Au  Au2  1  0.50000  0.25000  0.18233  1
 Ti  Ti1  1  0.00000  0.75000  0.31306  1
 Ti  Ti2  1  0.00000  0.25000  0.68694  1
