CIF file written using JARVIS-Tools package.
data_Al2CuO4
_symmetry_space_group_name_H-M  'Imma'
_cell_length_a       5.69006
_cell_length_b       5.82424
_cell_length_c       5.59648
_cell_angle_alpha    118.715
_cell_angle_beta     90
_cell_angle_gamma    60.7593

_symmetry_Int_Tables_number  74
_chemical_formula_structural  Al2CuO4
_chemical_formula_sum  Al4Cu2O8
_cell_volume  135.09440704935383
_cell_formula_units_Z  2
loop_
  _symmetry_equiv_pos_site_id
 _symmetry_equiv_pos_as_xyz
 1  'x, y, z'
loop_
 _atom_site_type_symbol
 _atom_site_label
 _atom_site_symmetry_multiplicity
 _atom_site_fract_x
 _atom_site_fract_y
 _atom_site_fract_z
 _atom_site_fract_occupancy
 Al  Al1  1  0.01234  0.97532  0.98766  1
 Al  Al2  1  0.23766  0.52468  0.26234  1
 Al  Al3  1  0.12500  0.25000  0.62500  1
 Al  Al4  1  0.62500  0.25000  0.62500  1
 Cu  Cu1  1  0.62500  0.75000  0.12500  1
 Cu  Cu2  1  0.62500  0.75000  0.62500  1
 O  O1  1  0.35775  0.78952  0.39476  1
 O  O2  1  0.85273  0.78952  0.39476  1
 O  O3  1  0.39727  0.71048  0.85524  1
 O  O4  1  0.35961  0.28078  0.40630  1
 O  O5  1  0.35961  0.28078  0.87449  1
 O  O6  1  0.89225  0.71048  0.85524  1
 O  O7  1  0.89039  0.21922  0.37551  1
 O  O8  1  0.89039  0.21922  0.84370  1
