CIF file written using JARVIS-Tools package.
data_SnBiO4
_symmetry_space_group_name_H-M  'I-4m2'
_cell_length_a       6.24115
_cell_length_b       4.1863
_cell_length_c       4.1863
_cell_angle_alpha    90
_cell_angle_beta     70.4045
_cell_angle_gamma    70.4045

_symmetry_Int_Tables_number  119
_chemical_formula_structural  SnBiO4
_chemical_formula_sum  SnBiO4
_cell_volume  96.291396062031
_cell_formula_units_Z  1
loop_
  _symmetry_equiv_pos_site_id
 _symmetry_equiv_pos_as_xyz
 1  'x, y, z'
loop_
 _atom_site_type_symbol
 _atom_site_label
 _atom_site_symmetry_multiplicity
 _atom_site_fract_x
 _atom_site_fract_y
 _atom_site_fract_z
 _atom_site_fract_occupancy
 Bi  Bi1  1  0.00000  0.00000  0.00000  1
 O  O1  1  0.88184  0.05908  0.55908  1
 O  O2  1  0.42162  0.78919  0.78919  1
 O  O3  1  0.57838  0.21081  0.21081  1
 O  O4  1  0.11816  0.44092  0.94092  1
 Sn  Sn1  1  0.50000  0.25000  0.75000  1
