CIF file written using JARVIS-Tools package.
data_SbTe2F6
_symmetry_space_group_name_H-M  'P-1'
_cell_length_a       5.44079
_cell_length_b       8.47453
_cell_length_c       9.79739
_cell_angle_alpha    127.805
_cell_angle_beta     88.7045
_cell_angle_gamma    103.334

_symmetry_Int_Tables_number  2
_chemical_formula_structural  SbTe2F6
_chemical_formula_sum  Sb2Te4F2
_cell_volume  343.12912351980594
_cell_formula_units_Z  2
loop_
  _symmetry_equiv_pos_site_id
 _symmetry_equiv_pos_as_xyz
 1  'x, y, z'
loop_
 _atom_site_type_symbol
 _atom_site_label
 _atom_site_symmetry_multiplicity
 _atom_site_fract_x
 _atom_site_fract_y
 _atom_site_fract_z
 _atom_site_fract_occupancy
 F  F1  1  0.68579  0.82662  0.06733  1
 F  F2  1  0.08780  0.85424  0.28823  1
 F  F3  1  0.18121  0.61023  0.95066  1
 F  F4  1  0.81879  0.38977  0.04934  1
 F  F5  1  0.44745  0.64297  0.20717  1
 F  F6  1  0.41751  0.92689  0.60061  1
 F  F7  1  0.31877  0.02548  0.14419  1
 F  F8  1  0.68123  0.97452  0.85581  1
 F  F9  1  0.91220  0.14576  0.71177  1
 F  F10  1  0.55255  0.35703  0.79283  1
 F  F11  1  0.58249  0.07311  0.39939  1
 F  F12  1  0.31421  0.17338  0.93267  1
 Sb  Sb1  1  0.61282  0.16634  0.82354  1
 Sb  Sb2  1  0.38718  0.83366  0.17646  1
 Te  Te1  1  0.94285  0.67652  0.73650  1
 Te  Te2  1  0.83744  0.64244  0.44712  1
 Te  Te3  1  0.16256  0.35756  0.55288  1
 Te  Te4  1  0.05715  0.32348  0.26350  1
