CIF file written using JARVIS-Tools package.
data_YbRbI3
_symmetry_space_group_name_H-M  'Pnma'
_cell_length_a       4.60665
_cell_length_b       10.3528
_cell_length_c       17.0443
_cell_angle_alpha    90
_cell_angle_beta     90
_cell_angle_gamma    90

_symmetry_Int_Tables_number  62
_chemical_formula_structural  YbRbI3
_chemical_formula_sum  Yb4Rb4I2
_cell_volume  812.8676621969979
_cell_formula_units_Z  4
loop_
  _symmetry_equiv_pos_site_id
 _symmetry_equiv_pos_as_xyz
 1  'x, y, z'
loop_
 _atom_site_type_symbol
 _atom_site_label
 _atom_site_symmetry_multiplicity
 _atom_site_fract_x
 _atom_site_fract_y
 _atom_site_fract_z
 _atom_site_fract_occupancy
 I  I1  1  0.75000  0.47592  0.60711  1
 I  I2  1  0.25000  0.52408  0.39289  1
 I  I3  1  0.25000  0.66339  0.98995  1
 I  I4  1  0.75000  0.20583  0.28390  1
 I  I5  1  0.25000  0.16339  0.51005  1
 I  I6  1  0.75000  0.70583  0.21610  1
 I  I7  1  0.75000  0.83661  0.48995  1
 I  I8  1  0.25000  0.02408  0.10711  1
 I  I9  1  0.75000  0.33661  0.01005  1
 I  I10  1  0.25000  0.29417  0.78390  1
 I  I11  1  0.75000  0.97592  0.89289  1
 I  I12  1  0.25000  0.79417  0.71610  1
 Rb  Rb1  1  0.75000  0.57071  0.82409  1
 Rb  Rb2  1  0.25000  0.42929  0.17591  1
 Rb  Rb3  1  0.25000  0.92929  0.32409  1
 Rb  Rb4  1  0.75000  0.07071  0.67591  1
 Yb  Yb1  1  0.25000  0.16579  0.94388  1
 Yb  Yb2  1  0.25000  0.66579  0.55612  1
 Yb  Yb3  1  0.75000  0.33421  0.44388  1
 Yb  Yb4  1  0.75000  0.83421  0.05612  1
