CIF file written using JARVIS-Tools package.
data_RbPbF3
_symmetry_space_group_name_H-M  'R3c'
_cell_length_a       6.50368
_cell_length_b       6.51216
_cell_length_c       6.51254
_cell_angle_alpha    63.0002
_cell_angle_beta     62.9965
_cell_angle_gamma    62.9961

_symmetry_Int_Tables_number  161
_chemical_formula_structural  RbPbF3
_chemical_formula_sum  Rb2Pb2F6
_cell_volume  208.0176330263124
_cell_formula_units_Z  2
loop_
  _symmetry_equiv_pos_site_id
 _symmetry_equiv_pos_as_xyz
 1  'x, y, z'
loop_
 _atom_site_type_symbol
 _atom_site_label
 _atom_site_symmetry_multiplicity
 _atom_site_fract_x
 _atom_site_fract_y
 _atom_site_fract_z
 _atom_site_fract_occupancy
 F  F1  1  0.81832  0.37693  0.19706  1
 F  F2  1  0.16464  0.84957  0.37875  1
 F  F3  1  0.66463  0.87663  0.35169  1
 F  F4  1  0.31850  0.69502  0.87897  1
 F  F5  1  0.34701  0.19454  0.85193  1
 F  F6  1  0.84712  0.34966  0.69658  1
 Pb  Pb1  1  0.01175  0.04220  0.04419  1
 Pb  Pb2  1  0.51175  0.54209  0.54432  1
 Rb  Rb1  1  0.75722  0.78704  0.78936  1
 Rb  Rb2  1  0.25721  0.28732  0.28907  1
