CIF file written using JARVIS-Tools package.
data_YbY2S4
_symmetry_space_group_name_H-M  'I-42d'
_cell_length_a       7.20847
_cell_length_b       7.20847
_cell_length_c       7.20847
_cell_angle_alpha    109.401
_cell_angle_beta     109.612
_cell_angle_gamma    109.401

_symmetry_Int_Tables_number  122
_chemical_formula_structural  YbY2S4
_chemical_formula_sum  Yb2Y4S8
_cell_volume  288.3408392056466
_cell_formula_units_Z  2
loop_
  _symmetry_equiv_pos_site_id
 _symmetry_equiv_pos_as_xyz
 1  'x, y, z'
loop_
 _atom_site_type_symbol
 _atom_site_label
 _atom_site_symmetry_multiplicity
 _atom_site_fract_x
 _atom_site_fract_y
 _atom_site_fract_z
 _atom_site_fract_occupancy
 S  S1  1  0.50407  0.99946  0.86018  1
 S  S2  1  0.13982  0.14389  0.13928  1
 S  S3  1  0.36018  0.49946  0.00407  1
 S  S4  1  0.63928  0.64389  0.63982  1
 S  S5  1  0.50461  0.00054  0.36072  1
 S  S6  1  0.99593  0.85611  0.49539  1
 S  S7  1  0.86072  0.50054  0.00461  1
 S  S8  1  0.99539  0.35611  0.49593  1
 Y  Y1  1  0.25000  0.62829  0.37829  1
 Y  Y2  1  0.62171  0.37171  0.25000  1
 Y  Y3  1  0.75000  0.87171  0.12171  1
 Y  Y4  1  0.87829  0.12829  0.75000  1
 Yb  Yb1  1  0.12500  0.75000  0.87500  1
 Yb  Yb2  1  0.37500  0.25000  0.62500  1
