CIF file written using JARVIS-Tools package.
data_NaTiS2
_symmetry_space_group_name_H-M  'R3m'
_cell_length_a       7.10136
_cell_length_b       7.10136
_cell_length_c       7.10136
_cell_angle_alpha    28.7201
_cell_angle_beta     28.7201
_cell_angle_gamma    28.7201

_symmetry_Int_Tables_number  160
_chemical_formula_structural  NaTiS2
_chemical_formula_sum  NaTiS2
_cell_volume  73.11185524864439
_cell_formula_units_Z  1
loop_
  _symmetry_equiv_pos_site_id
 _symmetry_equiv_pos_as_xyz
 1  'x, y, z'
loop_
 _atom_site_type_symbol
 _atom_site_label
 _atom_site_symmetry_multiplicity
 _atom_site_fract_x
 _atom_site_fract_y
 _atom_site_fract_z
 _atom_site_fract_occupancy
 Na  Na1  1  0.83380  0.83380  0.83380  1
 S  S1  1  0.40571  0.40571  0.40571  1
 S  S2  1  0.59831  0.59831  0.59831  1
 Ti  Ti1  1  0.00218  0.00218  0.00218  1
