CIF file written using JARVIS-Tools package.
data_WCl2O2
_symmetry_space_group_name_H-M  'Pmc2_1'
_cell_length_a       3.8895
_cell_length_b       7.9896
_cell_length_c       7.69281
_cell_angle_alpha    90
_cell_angle_beta     90
_cell_angle_gamma    90

_symmetry_Int_Tables_number  26
_chemical_formula_structural  WCl2O2
_chemical_formula_sum  W2Cl4O4
_cell_volume  239.05826862000958
_cell_formula_units_Z  2
loop_
  _symmetry_equiv_pos_site_id
 _symmetry_equiv_pos_as_xyz
 1  'x, y, z'
loop_
 _atom_site_type_symbol
 _atom_site_label
 _atom_site_symmetry_multiplicity
 _atom_site_fract_x
 _atom_site_fract_y
 _atom_site_fract_z
 _atom_site_fract_occupancy
 Cl  Cl1  1  0.01675  0.71430  0.45277  1
 Cl  Cl2  1  0.01675  0.28570  0.45277  1
 Cl  Cl3  1  0.98326  0.71430  0.95277  1
 Cl  Cl4  1  0.98326  0.28570  0.95277  1
 O  O1  1  0.49188  0.00000  0.46939  1
 O  O2  1  0.50812  0.00000  0.96939  1
 O  O3  1  0.99374  0.00000  0.71746  1
 O  O4  1  0.00626  0.00000  0.21746  1
 W  W1  1  0.94793  0.00000  0.48560  1
 W  W2  1  0.05207  0.00000  0.98560  1
