CIF file written using JARVIS-Tools package.
data_Li2CrFeO4
_symmetry_space_group_name_H-M  'C2/m'
_cell_length_a       2.86771
_cell_length_b       4.92424
_cell_length_c       9.67529
_cell_angle_alpha    95.0363
_cell_angle_beta     98.5191
_cell_angle_gamma    90.0001

_symmetry_Int_Tables_number  12
_chemical_formula_structural  Li2CrFeO4
_chemical_formula_sum  Li4Cr2Fe2O8
_cell_volume  134.58708077859745
_cell_formula_units_Z  2
loop_
  _symmetry_equiv_pos_site_id
 _symmetry_equiv_pos_as_xyz
 1  'x, y, z'
loop_
 _atom_site_type_symbol
 _atom_site_label
 _atom_site_symmetry_multiplicity
 _atom_site_fract_x
 _atom_site_fract_y
 _atom_site_fract_z
 _atom_site_fract_occupancy
 Cr  Cr1  1  0.86968  0.62448  0.74916  1
 Cr  Cr2  1  0.11997  0.37553  0.25005  1
 Fe  Fe1  1  0.37012  0.12497  0.75005  1
 Fe  Fe2  1  0.61952  0.87502  0.24914  1
 Li  Li1  1  0.99489  -0.00003  -0.00038  1
 Li  Li2  1  0.74618  0.24474  0.50246  1
 Li  Li3  1  0.49486  0.49992  0.99960  1
 Li  Li4  1  0.24337  0.75538  0.49674  1
 O  O1  1  0.92669  0.30692  0.86325  1
 O  O2  1  0.17626  0.05664  0.36268  1
 O  O3  1  0.56267  0.18974  0.13539  1
 O  O4  1  0.67708  0.56181  0.36433  1
 O  O5  1  0.31255  0.43820  0.63488  1
 O  O6  1  0.81338  0.94336  0.63651  1
 O  O7  1  0.06295  0.69306  0.13595  1
 O  O8  1  0.42697  0.81025  0.86381  1
