CIF file written using JARVIS-Tools package.
data_Fe3Sn
_symmetry_space_group_name_H-M  'P6_3/mmc'
_cell_length_a       4.2898
_cell_length_b       5.46196
_cell_length_c       5.46196
_cell_angle_alpha    120
_cell_angle_beta     90
_cell_angle_gamma    90

_symmetry_Int_Tables_number  194
_chemical_formula_structural  Fe3Sn
_chemical_formula_sum  Fe6Sn2
_cell_volume  110.83222050429059
_cell_formula_units_Z  2
loop_
  _symmetry_equiv_pos_site_id
 _symmetry_equiv_pos_as_xyz
 1  'x, y, z'
loop_
 _atom_site_type_symbol
 _atom_site_label
 _atom_site_symmetry_multiplicity
 _atom_site_fract_x
 _atom_site_fract_y
 _atom_site_fract_z
 _atom_site_fract_occupancy
 Fe  Fe1  1  0.75000  0.15024  0.30046  1
 Fe  Fe2  1  0.75000  0.15020  0.84980  1
 Fe  Fe3  1  0.75000  0.69954  0.84976  1
 Fe  Fe4  1  0.25000  0.84976  0.69954  1
 Fe  Fe5  1  0.25000  0.84980  0.15020  1
 Fe  Fe6  1  0.25000  0.30046  0.15024  1
 Sn  Sn1  1  0.75000  0.66668  0.33332  1
 Sn  Sn2  1  0.25000  0.33332  0.66668  1
