CIF file written using JARVIS-Tools package.
data_HfAlNi
_symmetry_space_group_name_H-M  'P-62m'
_cell_length_a       3.47762
_cell_length_b       6.84292
_cell_length_c       6.84294
_cell_angle_alpha    120
_cell_angle_beta     90
_cell_angle_gamma    90

_symmetry_Int_Tables_number  189
_chemical_formula_structural  HfAlNi
_chemical_formula_sum  Hf3Al3Ni3
_cell_volume  141.02529186089265
_cell_formula_units_Z  3
loop_
  _symmetry_equiv_pos_site_id
 _symmetry_equiv_pos_as_xyz
 1  'x, y, z'
loop_
 _atom_site_type_symbol
 _atom_site_label
 _atom_site_symmetry_multiplicity
 _atom_site_fract_x
 _atom_site_fract_y
 _atom_site_fract_z
 _atom_site_fract_occupancy
 Al  Al1  1  0.00000  0.25025  -0.00000  1
 Al  Al2  1  0.00000  0.74974  0.74975  1
 Al  Al3  1  0.00000  -0.00001  0.25025  1
 Hf  Hf1  1  0.50000  0.59127  0.00000  1
 Hf  Hf2  1  0.50000  0.40871  0.40872  1
 Hf  Hf3  1  0.50000  -0.00001  0.59128  1
 Ni  Ni1  1  0.00000  0.33331  0.66665  1
 Ni  Ni2  1  0.00000  0.66667  0.33335  1
 Ni  Ni3  1  0.50000  0.99999  0.00000  1
