CIF file written using JARVIS-Tools package.
data_TiTe3O8
_symmetry_space_group_name_H-M  'Ia-3'
_cell_length_a       9.51489
_cell_length_b       9.5149
_cell_length_c       9.5149
_cell_angle_alpha    109.471
_cell_angle_beta     109.471
_cell_angle_gamma    109.471

_symmetry_Int_Tables_number  206
_chemical_formula_structural  TiTe3O8
_chemical_formula_sum  Ti4Te2O32
_cell_volume  663.1180022233985
_cell_formula_units_Z  4
loop_
  _symmetry_equiv_pos_site_id
 _symmetry_equiv_pos_as_xyz
 1  'x, y, z'
loop_
 _atom_site_type_symbol
 _atom_site_label
 _atom_site_symmetry_multiplicity
 _atom_site_fract_x
 _atom_site_fract_y
 _atom_site_fract_z
 _atom_site_fract_occupancy
 O  O1  1  0.76345  0.95610  0.93396  1
 O  O2  1  0.50000  -0.00000  0.84854  1
 O  O3  1  0.00000  0.84854  0.50000  1
 O  O4  1  0.65146  0.65146  0.65146  1
 O  O5  1  0.15146  0.50000  0.00000  1
 O  O6  1  0.50000  0.00000  0.15146  1
 O  O7  1  -0.00000  0.15146  0.50000  1
 O  O8  1  0.34854  0.34854  0.34854  1
 O  O9  1  0.02214  0.45610  0.69265  1
 O  O10  1  0.26345  0.32950  0.80735  1
 O  O11  1  0.67050  0.19265  0.73655  1
 O  O12  1  0.30735  0.97786  0.54390  1
 O  O13  1  0.43396  0.47786  0.17050  1
 O  O14  1  0.69265  0.02214  0.45610  1
 O  O15  1  0.32950  0.80735  0.26345  1
 O  O16  1  0.06604  0.23655  0.04390  1
 O  O17  1  0.52214  0.82950  0.56604  1
 O  O18  1  0.95610  0.93396  0.76345  1
 O  O19  1  0.19265  0.73655  0.67050  1
 O  O20  1  0.54390  0.30735  0.97786  1
 O  O21  1  0.93396  0.76345  0.95610  1
 O  O22  1  0.23655  0.04390  0.06604  1
 O  O23  1  0.84854  0.50000  -0.00000  1
 O  O24  1  0.56604  0.52214  0.82950  1
 O  O25  1  0.73655  0.67050  0.19265  1
 O  O26  1  0.97786  0.54390  0.30735  1
 O  O27  1  0.47786  0.17050  0.43396  1
 O  O28  1  0.04390  0.06604  0.23655  1
 O  O29  1  0.80735  0.26345  0.32950  1
 O  O30  1  0.45610  0.69265  0.02214  1
 O  O31  1  0.82950  0.56604  0.52214  1
 O  O32  1  0.17050  0.43396  0.47786  1
 Te  Te1  1  0.96686  0.71686  0.25000  1
 Te  Te2  1  0.75000  0.53314  0.78314  1
 Te  Te3  1  0.75000  0.03314  0.28314  1
 Te  Te4  1  0.25000  0.96686  0.71686  1
 Te  Te5  1  0.46686  0.21686  0.25000  1
 Te  Te6  1  0.25000  0.46686  0.21686  1
 Te  Te7  1  0.03314  0.28314  0.75000  1
 Te  Te8  1  0.71686  0.25000  0.96686  1
 Te  Te9  1  0.53314  0.78314  0.75000  1
 Te  Te10  1  0.21686  0.25000  0.46686  1
 Te  Te11  1  0.78314  0.75000  0.53314  1
 Te  Te12  1  0.28314  0.75000  0.03314  1
 Ti  Ti1  1  0.50000  0.00000  0.50000  1
 Ti  Ti2  1  -0.00000  0.50000  0.50000  1
 Ti  Ti3  1  0.00000  0.00000  0.00000  1
 Ti  Ti4  1  0.50000  0.50000  -0.00000  1
