CIF file written using JARVIS-Tools package.
data_Co3O2F4
_symmetry_space_group_name_H-M  'P2_1/c'
_cell_length_a       4.50429
_cell_length_b       4.4903
_cell_length_c       10.1765
_cell_angle_alpha    90
_cell_angle_beta     116.053
_cell_angle_gamma    90

_symmetry_Int_Tables_number  14
_chemical_formula_structural  Co3O2F4
_chemical_formula_sum  Co6O4F8
_cell_volume  184.9111137150807
_cell_formula_units_Z  2
loop_
  _symmetry_equiv_pos_site_id
 _symmetry_equiv_pos_as_xyz
 1  'x, y, z'
loop_
 _atom_site_type_symbol
 _atom_site_label
 _atom_site_symmetry_multiplicity
 _atom_site_fract_x
 _atom_site_fract_y
 _atom_site_fract_z
 _atom_site_fract_occupancy
 Co  Co1  1  0.13621  0.03256  0.17434  1
 Co  Co2  1  0.50000  0.00000  0.50000  1
 Co  Co3  1  0.86379  0.96744  0.82566  1
 Co  Co4  1  0.86379  0.53256  0.32566  1
 Co  Co5  1  0.50000  0.50000  0.00000  1
 Co  Co6  1  0.13621  0.46744  0.67434  1
 F  F1  1  0.55350  0.26358  0.83703  1
 F  F2  1  0.44650  0.73642  0.16297  1
 F  F3  1  0.80205  0.70060  0.49321  1
 F  F4  1  0.19795  0.20060  0.00679  1
 F  F5  1  0.55350  0.23642  0.33703  1
 F  F6  1  0.44650  0.76358  0.66297  1
 F  F7  1  0.19795  0.29940  0.50679  1
 F  F8  1  0.80205  0.79940  0.99321  1
 O  O1  1  0.14148  0.66590  0.83388  1
 O  O2  1  0.85852  0.33410  0.16612  1
 O  O3  1  0.14148  0.83410  0.33388  1
 O  O4  1  0.85852  0.16590  0.66612  1
