CIF file written using JARVIS-Tools package.
data_Fe2OF3
_symmetry_space_group_name_H-M  'Amm2'
_cell_length_a       4.78349
_cell_length_b       4.78349
_cell_length_c       3.10807
_cell_angle_alpha    90
_cell_angle_beta     90
_cell_angle_gamma    87.1483

_symmetry_Int_Tables_number  38
_chemical_formula_structural  Fe2OF3
_chemical_formula_sum  Fe2OF3
_cell_volume  71.0301974159628
_cell_formula_units_Z  1
loop_
  _symmetry_equiv_pos_site_id
 _symmetry_equiv_pos_as_xyz
 1  'x, y, z'
loop_
 _atom_site_type_symbol
 _atom_site_label
 _atom_site_symmetry_multiplicity
 _atom_site_fract_x
 _atom_site_fract_y
 _atom_site_fract_z
 _atom_site_fract_occupancy
 F  F1  1  0.30193  0.29855  0.00000  1
 F  F2  1  0.70145  0.69807  0.00000  1
 F  F3  1  0.79449  0.20551  0.50000  1
 Fe  Fe1  1  0.02302  0.97698  0.00000  1
 Fe  Fe2  1  0.48427  0.51573  0.50000  1
 O  O1  1  0.19484  0.80516  0.50000  1
