CIF file written using JARVIS-Tools package.
data_Te2SO7
_symmetry_space_group_name_H-M  'Pmn2_1'
_cell_length_a       4.59808
_cell_length_b       6.95117
_cell_length_c       8.99889
_cell_angle_alpha    90
_cell_angle_beta     90
_cell_angle_gamma    90

_symmetry_Int_Tables_number  31
_chemical_formula_structural  Te2SO7
_chemical_formula_sum  Te4S2O4
_cell_volume  287.6231617905081
_cell_formula_units_Z  2
loop_
  _symmetry_equiv_pos_site_id
 _symmetry_equiv_pos_as_xyz
 1  'x, y, z'
loop_
 _atom_site_type_symbol
 _atom_site_label
 _atom_site_symmetry_multiplicity
 _atom_site_fract_x
 _atom_site_fract_y
 _atom_site_fract_z
 _atom_site_fract_occupancy
 O  O1  1  0.48708  0.96202  0.86342  1
 O  O2  1  0.27530  0.80891  0.50000  1
 O  O3  1  0.77530  0.19109  0.00000  1
 O  O4  1  0.13196  0.40285  0.75607  1
 O  O5  1  0.33197  0.58675  0.00000  1
 O  O6  1  0.63196  0.59715  0.25607  1
 O  O7  1  0.63196  0.59715  0.74393  1
 O  O8  1  0.98708  0.03798  0.36342  1
 O  O9  1  0.48708  0.96202  0.13658  1
 O  O10  1  0.83197  0.41325  0.50000  1
 O  O11  1  0.98708  0.03798  0.63658  1
 O  O12  1  0.90694  0.84842  0.00000  1
 O  O13  1  0.40694  0.15158  0.50000  1
 O  O14  1  0.13196  0.40285  0.24393  1
 S  S1  1  0.66903  0.99168  0.00000  1
 S  S2  1  0.16903  0.00832  0.50000  1
 Te  Te1  1  0.74499  0.31958  0.30035  1
 Te  Te2  1  0.24499  0.68042  0.19965  1
 Te  Te3  1  0.24499  0.68042  0.80035  1
 Te  Te4  1  0.74499  0.31958  0.69965  1
