CIF file written using JARVIS-Tools package.
data_MnAg4Sb2S6
_symmetry_space_group_name_H-M  'P2_1/c'
_cell_length_a       6.67179
_cell_length_b       7.98042
_cell_length_c       10.564
_cell_angle_alpha    90
_cell_angle_beta     92.0149
_cell_angle_gamma    90

_symmetry_Int_Tables_number  14
_chemical_formula_structural  MnAg4Sb2S6
_chemical_formula_sum  Mn2Ag8Sb4S2
_cell_volume  562.1182498149834
_cell_formula_units_Z  2
loop_
  _symmetry_equiv_pos_site_id
 _symmetry_equiv_pos_as_xyz
 1  'x, y, z'
loop_
 _atom_site_type_symbol
 _atom_site_label
 _atom_site_symmetry_multiplicity
 _atom_site_fract_x
 _atom_site_fract_y
 _atom_site_fract_z
 _atom_site_fract_occupancy
 Ag  Ag1  1  0.26230  0.53337  0.02577  1
 Ag  Ag2  1  0.76230  0.96663  0.52577  1
 Ag  Ag3  1  0.73770  0.46663  0.97423  1
 Ag  Ag4  1  0.42784  0.80716  0.67627  1
 Ag  Ag5  1  0.07216  0.30716  0.82373  1
 Ag  Ag6  1  0.57216  0.19284  0.32373  1
 Ag  Ag7  1  0.92784  0.69284  0.17627  1
 Ag  Ag8  1  0.23770  0.03337  0.47423  1
 Mn  Mn1  1  0.00000  0.50000  0.50000  1
 Mn  Mn2  1  0.50000  0.00000  0.00000  1
 S  S1  1  0.87553  0.40349  0.28097  1
 S  S2  1  0.37553  0.09651  0.78097  1
 S  S3  1  0.12447  0.59651  0.71903  1
 S  S4  1  0.82902  0.17095  0.98494  1
 S  S5  1  0.67098  0.67095  0.51506  1
 S  S6  1  0.17098  0.82905  0.01506  1
 S  S7  1  0.32902  0.32905  0.48494  1
 S  S8  1  0.62447  0.90349  0.21903  1
 S  S9  1  0.34813  0.25895  0.10667  1
 S  S10  1  0.84813  0.24105  0.60667  1
 S  S11  1  0.65187  0.74105  0.89333  1
 S  S12  1  0.15187  0.75895  0.39333  1
 Sb  Sb1  1  0.96793  0.85710  0.80890  1
 Sb  Sb2  1  0.03207  0.14290  0.19110  1
 Sb  Sb3  1  0.53207  0.35710  0.69110  1
 Sb  Sb4  1  0.46793  0.64290  0.30890  1
