CIF file written using JARVIS-Tools package.
data_Li4Ti3V3Cr2O16
_symmetry_space_group_name_H-M  'Cm'
_cell_length_a       5.83014
_cell_length_b       5.83402
_cell_length_c       9.52108
_cell_angle_alpha    90.0561
_cell_angle_beta     90.0005
_cell_angle_gamma    119.978

_symmetry_Int_Tables_number  8
_chemical_formula_structural  Li4Ti3V3Cr2O16
_chemical_formula_sum  Li4Ti3V3Cr2O6
_cell_volume  280.5164566531691
_cell_formula_units_Z  1
loop_
  _symmetry_equiv_pos_site_id
 _symmetry_equiv_pos_as_xyz
 1  'x, y, z'
loop_
 _atom_site_type_symbol
 _atom_site_label
 _atom_site_symmetry_multiplicity
 _atom_site_fract_x
 _atom_site_fract_y
 _atom_site_fract_z
 _atom_site_fract_occupancy
 Cr  Cr1  1  0.66952  0.33905  0.48748  1
 Cr  Cr2  1  0.33449  0.66900  0.98411  1
 Li  Li1  1  0.66900  0.33802  0.89380  1
 Li  Li2  1  0.99647  0.99296  0.99391  1
 Li  Li3  1  -0.00195  -0.00388  0.49804  1
 Li  Li4  1  0.33506  0.67016  0.39402  1
 O  O1  1  0.33371  0.16590  0.60134  1
 O  O2  1  0.48211  0.96424  0.84168  1
 O  O3  1  0.66182  0.32365  0.09938  1
 O  O4  1  0.00199  0.00399  0.31368  1
 O  O5  1  -0.00348  -0.00694  0.80981  1
 O  O6  1  0.83218  0.16590  0.60134  1
 O  O7  1  0.52134  0.04272  0.34068  1
 O  O8  1  0.96274  0.48342  0.34087  1
 O  O9  1  0.83591  0.67185  0.60420  1
 O  O10  1  0.04053  0.51963  0.84100  1
 O  O11  1  0.16355  0.83228  0.10305  1
 O  O12  1  0.32848  0.65698  0.59660  1
 O  O13  1  0.52066  0.48343  0.34087  1
 O  O14  1  0.16479  0.32962  0.10045  1
 O  O15  1  0.47908  0.51963  0.84100  1
 O  O16  1  0.66871  0.83226  0.10306  1
 Ti  Ti1  1  0.16645  0.33290  0.71753  1
 Ti  Ti2  1  0.83504  0.17578  0.21580  1
 Ti  Ti3  1  0.34072  0.17586  0.21579  1
 V  V1  1  0.83096  0.66189  0.20874  1
 V  V2  1  0.17910  0.82984  0.70981  1
 V  V3  1  0.65072  0.82984  0.70981  1
