CIF file written using JARVIS-Tools package.
data_KLi4CrO5
_symmetry_space_group_name_H-M  'P-1'
_cell_length_a       5.54455
_cell_length_b       5.76814
_cell_length_c       8.19196
_cell_angle_alpha    91.8896
_cell_angle_beta     98.2308
_cell_angle_gamma    118.642

_symmetry_Int_Tables_number  2
_chemical_formula_structural  KLi4CrO5
_chemical_formula_sum  K2Li8Cr2O0
_cell_volume  226.00257193368822
_cell_formula_units_Z  2
loop_
  _symmetry_equiv_pos_site_id
 _symmetry_equiv_pos_as_xyz
 1  'x, y, z'
loop_
 _atom_site_type_symbol
 _atom_site_label
 _atom_site_symmetry_multiplicity
 _atom_site_fract_x
 _atom_site_fract_y
 _atom_site_fract_z
 _atom_site_fract_occupancy
 Cr  Cr1  1  0.13616  0.90952  0.22098  1
 Cr  Cr2  1  0.86384  0.09048  0.77902  1
 K  K1  1  0.39652  0.25112  0.59072  1
 K  K2  1  0.60348  0.74888  0.40928  1
 Li  Li1  1  0.33037  -0.00038  0.87463  1
 Li  Li2  1  0.89954  0.61450  0.91463  1
 Li  Li3  1  0.11564  0.66965  0.62361  1
 Li  Li4  1  0.88436  0.33035  0.37639  1
 Li  Li5  1  0.10046  0.38550  0.08537  1
 Li  Li6  1  0.66963  0.00038  0.12537  1
 Li  Li7  1  0.56099  0.35972  0.08549  1
 Li  Li8  1  0.43901  0.64028  0.91451  1
 O  O1  1  0.51229  0.16606  0.27365  1
 O  O2  1  0.05766  0.17515  0.27006  1
 O  O3  1  0.08894  0.72470  0.38258  1
 O  O4  1  0.91106  0.27530  0.61742  1
 O  O5  1  0.22444  0.26705  0.91351  1
 O  O6  1  0.48771  0.83394  0.72635  1
 O  O7  1  0.74887  0.23243  0.94067  1
 O  O8  1  0.25113  0.76757  0.05933  1
 O  O9  1  0.94234  0.82485  0.72994  1
 O  O10  1  0.77556  0.73295  0.08649  1
