CIF file written using JARVIS-Tools package.
data_MgMn2O4
_symmetry_space_group_name_H-M  'Imma'
_cell_length_a       5.96109
_cell_length_b       5.96109
_cell_length_c       5.89556
_cell_angle_alpha    60.363
_cell_angle_beta     60.363
_cell_angle_gamma    60.1629

_symmetry_Int_Tables_number  74
_chemical_formula_structural  MgMn2O4
_chemical_formula_sum  Mg2Mn4O8
_cell_volume  149.12837989956807
_cell_formula_units_Z  2
loop_
  _symmetry_equiv_pos_site_id
 _symmetry_equiv_pos_as_xyz
 1  'x, y, z'
loop_
 _atom_site_type_symbol
 _atom_site_label
 _atom_site_symmetry_multiplicity
 _atom_site_fract_x
 _atom_site_fract_y
 _atom_site_fract_z
 _atom_site_fract_occupancy
 Mg  Mg1  1  0.12500  0.62500  0.62500  1
 Mg  Mg2  1  0.62500  0.12500  0.62500  1
 Mn  Mn1  1  0.99137  0.99137  0.00863  1
 Mn  Mn2  1  0.25863  0.25863  0.24137  1
 Mn  Mn3  1  0.62500  0.62500  0.12500  1
 Mn  Mn4  1  0.62500  0.62500  0.62500  1
 O  O1  1  0.39787  0.39787  0.36651  1
 O  O2  1  0.39997  0.84406  0.37799  1
 O  O3  1  0.39787  0.39787  0.83775  1
 O  O4  1  0.84406  0.39997  0.37799  1
 O  O5  1  0.40594  0.85003  0.87201  1
 O  O6  1  0.85003  0.40594  0.87201  1
 O  O7  1  0.85213  0.85213  0.41225  1
 O  O8  1  0.85213  0.85213  0.88349  1
