CIF file written using JARVIS-Tools package.
data_Na2Ni2O3
_symmetry_space_group_name_H-M  'P2_1/c'
_cell_length_a       5.74187
_cell_length_b       5.39398
_cell_length_c       6.12731
_cell_angle_alpha    90
_cell_angle_beta     118.093
_cell_angle_gamma    90

_symmetry_Int_Tables_number  14
_chemical_formula_structural  Na2Ni2O3
_chemical_formula_sum  Na4Ni4O6
_cell_volume  167.41384064163756
_cell_formula_units_Z  2
loop_
  _symmetry_equiv_pos_site_id
 _symmetry_equiv_pos_as_xyz
 1  'x, y, z'
loop_
 _atom_site_type_symbol
 _atom_site_label
 _atom_site_symmetry_multiplicity
 _atom_site_fract_x
 _atom_site_fract_y
 _atom_site_fract_z
 _atom_site_fract_occupancy
 Na  Na1  1  0.15185  0.34485  0.89243  1
 Na  Na2  1  0.15185  0.15515  0.39243  1
 Na  Na3  1  0.84815  0.84485  0.60757  1
 Na  Na4  1  0.84815  0.65515  0.10757  1
 Ni  Ni1  1  0.34106  0.64097  0.58907  1
 Ni  Ni2  1  0.65894  0.14097  0.91093  1
 Ni  Ni3  1  0.34106  0.85903  0.08907  1
 Ni  Ni4  1  0.65894  0.35903  0.41093  1
 O  O1  1  0.00000  0.50000  0.50000  1
 O  O2  1  0.00000  0.00000  0.00000  1
 O  O3  1  0.34073  0.93055  0.76631  1
 O  O4  1  0.34073  0.56945  0.26631  1
 O  O5  1  0.65927  0.43055  0.73369  1
 O  O6  1  0.65927  0.06945  0.23369  1
