CIF file written using JARVIS-Tools package.
data_Li2NiBO4
_symmetry_space_group_name_H-M  'C222_1'
_cell_length_a       4.96124
_cell_length_b       4.96124
_cell_length_c       6.03759
_cell_angle_alpha    90
_cell_angle_beta     90
_cell_angle_gamma    87.6101

_symmetry_Int_Tables_number  20
_chemical_formula_structural  Li2NiBO4
_chemical_formula_sum  Li4Ni2B2O8
_cell_volume  148.47916174233467
_cell_formula_units_Z  2
loop_
  _symmetry_equiv_pos_site_id
 _symmetry_equiv_pos_as_xyz
 1  'x, y, z'
loop_
 _atom_site_type_symbol
 _atom_site_label
 _atom_site_symmetry_multiplicity
 _atom_site_fract_x
 _atom_site_fract_y
 _atom_site_fract_z
 _atom_site_fract_occupancy
 B  B1  1  0.31575  0.68425  0.00000  1
 B  B2  1  0.68425  0.31575  0.50000  1
 Li  Li1  1  0.32111  0.67889  0.50000  1
 Li  Li2  1  0.19041  0.19041  0.75000  1
 Li  Li3  1  0.80959  0.80959  0.25000  1
 Li  Li4  1  0.67889  0.32111  0.00000  1
 Ni  Ni1  1  0.18566  0.18566  0.25000  1
 Ni  Ni2  1  0.81434  0.81434  0.75000  1
 O  O1  1  0.20107  0.80454  0.20464  1
 O  O2  1  0.19546  0.79893  0.79536  1
 O  O3  1  0.28158  0.38533  0.00608  1
 O  O4  1  0.61467  0.71842  0.99392  1
 O  O5  1  0.38533  0.28158  0.49392  1
 O  O6  1  0.71842  0.61467  0.50608  1
 O  O7  1  0.79893  0.19546  0.70464  1
 O  O8  1  0.80454  0.20107  0.29536  1
