CIF file written using JARVIS-Tools package.
data_CrSb2
_symmetry_space_group_name_H-M  'Pnnm'
_cell_length_a       3.47865
_cell_length_b       5.9523
_cell_length_c       6.89328
_cell_angle_alpha    90
_cell_angle_beta     90
_cell_angle_gamma    90

_symmetry_Int_Tables_number  58
_chemical_formula_structural  CrSb2
_chemical_formula_sum  Cr2Sb4
_cell_volume  142.7322548123748
_cell_formula_units_Z  2
loop_
  _symmetry_equiv_pos_site_id
 _symmetry_equiv_pos_as_xyz
 1  'x, y, z'
loop_
 _atom_site_type_symbol
 _atom_site_label
 _atom_site_symmetry_multiplicity
 _atom_site_fract_x
 _atom_site_fract_y
 _atom_site_fract_z
 _atom_site_fract_occupancy
 Cr  Cr1  1  0.00000  0.00000  0.00000  1
 Cr  Cr2  1  0.50000  0.50000  0.50000  1
 Sb  Sb1  1  0.00000  0.18381  0.36248  1
 Sb  Sb2  1  0.00000  0.81619  0.63752  1
 Sb  Sb3  1  0.50000  0.68381  0.13752  1
 Sb  Sb4  1  0.50000  0.31619  0.86248  1
