CIF file written using JARVIS-Tools package.
data_KTaCu2Se4
_symmetry_space_group_name_H-M  'Ama2'
_cell_length_a       5.69651
_cell_length_b       7.71973
_cell_length_c       9.89455
_cell_angle_alpha    90
_cell_angle_beta     106.73
_cell_angle_gamma    90

_symmetry_Int_Tables_number  40
_chemical_formula_structural  KTaCu2Se4
_chemical_formula_sum  K2Ta2Cu4Se8
_cell_volume  416.7004161276469
_cell_formula_units_Z  2
loop_
  _symmetry_equiv_pos_site_id
 _symmetry_equiv_pos_as_xyz
 1  'x, y, z'
loop_
 _atom_site_type_symbol
 _atom_site_label
 _atom_site_symmetry_multiplicity
 _atom_site_fract_x
 _atom_site_fract_y
 _atom_site_fract_z
 _atom_site_fract_occupancy
 Cu  Cu1  1  0.10911  0.25000  0.21786  1
 Cu  Cu2  1  0.89125  0.75000  0.78214  1
 Cu  Cu3  1  0.51923  0.50000  0.00000  1
 Cu  Cu4  1  0.51923  0.00000  0.00000  1
 K  K1  1  0.44205  0.75000  0.36495  1
 K  K2  1  0.07710  0.25000  0.63505  1
 Se  Se1  1  0.25414  0.25000  0.00637  1
 Se  Se2  1  0.24777  0.75000  0.99363  1
 Se  Se3  1  0.46826  0.25000  0.42834  1
 Se  Se4  1  0.03992  0.75000  0.57166  1
 Se  Se5  1  0.63794  0.00842  0.78064  1
 Se  Se6  1  0.85730  0.99158  0.21936  1
 Se  Se7  1  0.63794  0.49158  0.78064  1
 Se  Se8  1  0.85730  0.50842  0.21936  1
 Ta  Ta1  1  0.61063  0.25000  0.22061  1
 Ta  Ta2  1  0.39002  0.75000  0.77939  1
