CIF file written using JARVIS-Tools package.
data_Li4Ti2V3Cr3O16
_symmetry_space_group_name_H-M  'Cm'
_cell_length_a       5.81921
_cell_length_b       5.82033
_cell_length_c       9.46382
_cell_angle_alpha    90.0002
_cell_angle_beta     90.2872
_cell_angle_gamma    120.006

_symmetry_Int_Tables_number  8
_chemical_formula_structural  Li4Ti2V3Cr3O16
_chemical_formula_sum  Li4Ti2V3Cr3O6
_cell_volume  277.57244843733304
_cell_formula_units_Z  1
loop_
  _symmetry_equiv_pos_site_id
 _symmetry_equiv_pos_as_xyz
 1  'x, y, z'
loop_
 _atom_site_type_symbol
 _atom_site_label
 _atom_site_symmetry_multiplicity
 _atom_site_fract_x
 _atom_site_fract_y
 _atom_site_fract_z
 _atom_site_fract_occupancy
 Cr  Cr1  1  0.66278  0.83141  0.28670  1
 Cr  Cr2  1  0.82733  0.65857  0.78562  1
 Cr  Cr3  1  0.82733  0.16877  0.78562  1
 Li  Li1  1  0.65971  0.32986  0.10375  1
 Li  Li2  1  0.00127  0.00064  0.00541  1
 Li  Li3  1  0.00402  0.00205  0.50513  1
 Li  Li4  1  0.32812  0.66407  0.60743  1
 O  O1  1  0.83722  0.66733  0.40342  1
 O  O2  1  0.02926  0.51464  0.15603  1
 O  O3  1  0.65925  0.32963  0.89757  1
 O  O4  1  0.00366  0.00183  0.69335  1
 O  O5  1  0.00517  0.00260  0.19387  1
 O  O6  1  0.83722  0.16994  0.40341  1
 O  O7  1  0.95729  0.47865  0.66198  1
 O  O8  1  0.51550  0.03487  0.65793  1
 O  O9  1  0.33458  0.16731  0.40085  1
 O  O10  1  0.16747  0.83397  0.90221  1
 O  O11  1  0.47958  0.51977  0.16076  1
 O  O12  1  0.33501  0.66752  0.40126  1
 O  O13  1  0.51550  0.48063  0.65793  1
 O  O14  1  0.66636  0.83318  0.90383  1
 O  O15  1  0.47958  0.95983  0.16075  1
 O  O16  1  0.16746  0.33350  0.90222  1
 Ti  Ti1  1  0.33525  0.66762  0.00249  1
 Ti  Ti2  1  0.66943  0.33475  0.50544  1
 V  V1  1  0.17285  0.35172  0.28321  1
 V  V2  1  0.34897  0.17447  0.78081  1
 V  V3  1  0.17287  0.82117  0.28321  1
