CIF file written using JARVIS-Tools package.
data_LiMo2O4
_symmetry_space_group_name_H-M  'I-4m2'
_cell_length_a       6.10182
_cell_length_b       5.85907
_cell_length_c       5.85903
_cell_angle_alpha    62.759
_cell_angle_beta     58.6171
_cell_angle_gamma    58.6185

_symmetry_Int_Tables_number  119
_chemical_formula_structural  LiMo2O4
_chemical_formula_sum  Li2Mo4O8
_cell_volume  147.57782801575186
_cell_formula_units_Z  2
loop_
  _symmetry_equiv_pos_site_id
 _symmetry_equiv_pos_as_xyz
 1  'x, y, z'
loop_
 _atom_site_type_symbol
 _atom_site_label
 _atom_site_symmetry_multiplicity
 _atom_site_fract_x
 _atom_site_fract_y
 _atom_site_fract_z
 _atom_site_fract_occupancy
 Li  Li1  1  0.12498  0.12501  0.12501  1
 Li  Li2  1  0.87497  0.87504  0.87500  1
 Mo  Mo1  1  0.50233  0.47985  0.47985  1
 Mo  Mo2  1  0.47985  0.03795  0.50234  1
 Mo  Mo3  1  0.03797  0.47986  0.47985  1
 Mo  Mo4  1  0.47985  0.50233  0.03796  1
 O  O1  1  0.22007  0.29663  0.76324  1
 O  O2  1  0.71206  0.75109  0.75108  1
 O  O3  1  0.75110  0.71204  0.28577  1
 O  O4  1  0.22008  0.76324  0.29662  1
 O  O5  1  0.29664  0.22005  0.22007  1
 O  O6  1  0.28577  0.75108  0.75109  1
 O  O7  1  0.75109  0.28578  0.71205  1
 O  O8  1  0.76323  0.22005  0.22007  1
