CIF file written using JARVIS-Tools package.
data_LuNiSn
_symmetry_space_group_name_H-M  'Pnma'
_cell_length_a       4.41492
_cell_length_b       6.94332
_cell_length_c       7.60293
_cell_angle_alpha    90
_cell_angle_beta     90
_cell_angle_gamma    90

_symmetry_Int_Tables_number  62
_chemical_formula_structural  LuNiSn
_chemical_formula_sum  Lu4Ni4Sn4
_cell_volume  233.0615835397725
_cell_formula_units_Z  4
loop_
  _symmetry_equiv_pos_site_id
 _symmetry_equiv_pos_as_xyz
 1  'x, y, z'
loop_
 _atom_site_type_symbol
 _atom_site_label
 _atom_site_symmetry_multiplicity
 _atom_site_fract_x
 _atom_site_fract_y
 _atom_site_fract_z
 _atom_site_fract_occupancy
 Lu  Lu1  1  0.25000  0.48737  0.20112  1
 Lu  Lu2  1  0.25000  0.98737  0.29888  1
 Lu  Lu3  1  0.75000  0.01263  0.70112  1
 Lu  Lu4  1  0.75000  0.51263  0.79888  1
 Ni  Ni1  1  0.75000  0.79222  0.08515  1
 Ni  Ni2  1  0.75000  0.29222  0.41485  1
 Ni  Ni3  1  0.25000  0.70778  0.58515  1
 Ni  Ni4  1  0.25000  0.20778  0.91485  1
 Sn  Sn1  1  0.75000  0.19006  0.08676  1
 Sn  Sn2  1  0.75000  0.69006  0.41324  1
 Sn  Sn3  1  0.25000  0.30994  0.58676  1
 Sn  Sn4  1  0.25000  0.80994  0.91324  1
