CIF file written using JARVIS-Tools package.
data_LiVP2HO8
_symmetry_space_group_name_H-M  'Pc'
_cell_length_a       4.83962
_cell_length_b       7.40231
_cell_length_c       7.87908
_cell_angle_alpha    90.0024
_cell_angle_beta     89.9948
_cell_angle_gamma    75.134

_symmetry_Int_Tables_number  7
_chemical_formula_structural  LiVP2HO8
_chemical_formula_sum  Li2V2P4H2O6
_cell_volume  272.8151104867255
_cell_formula_units_Z  2
loop_
  _symmetry_equiv_pos_site_id
 _symmetry_equiv_pos_as_xyz
 1  'x, y, z'
loop_
 _atom_site_type_symbol
 _atom_site_label
 _atom_site_symmetry_multiplicity
 _atom_site_fract_x
 _atom_site_fract_y
 _atom_site_fract_z
 _atom_site_fract_occupancy
 H  H1  1  0.96876  0.01173  0.01238  1
 H  H2  1  0.46893  0.51174  0.49044  1
 Li  Li1  1  0.40166  0.14508  0.87697  1
 Li  Li2  1  0.90186  0.64502  0.62593  1
 O  O1  1  0.13535  0.14136  0.55981  1
 O  O2  1  0.04733  0.68557  0.16605  1
 O  O3  1  0.98780  0.30735  0.83271  1
 O  O4  1  0.25539  0.56153  0.44795  1
 O  O5  1  0.36324  0.34279  0.05667  1
 O  O6  1  0.54733  0.18551  0.33687  1
 O  O7  1  0.15783  0.64004  0.82270  1
 O  O8  1  0.33474  0.86869  0.32595  1
 O  O9  1  0.65773  0.14012  0.68022  1
 O  O10  1  0.75519  0.06157  0.05488  1
 O  O11  1  0.63531  0.64148  0.94320  1
 O  O12  1  0.24400  0.94442  0.93822  1
 O  O13  1  0.74420  0.44438  0.56462  1
 O  O14  1  0.83455  0.36872  0.17696  1
 O  O15  1  0.48794  0.80729  0.67023  1
 O  O16  1  0.86342  0.84278  0.44632  1
 P  P1  1  0.87109  0.26370  0.65817  1
 P  P2  1  0.63092  0.24122  0.16075  1
 P  P3  1  0.37109  0.76369  0.84474  1
 P  P4  1  0.13105  0.74122  0.34215  1
 V  V1  1  0.99168  0.50459  0.00703  1
 V  V2  1  0.49178  0.00455  0.49592  1
