CIF file written using JARVIS-Tools package.
data_Fe4OF7
_symmetry_space_group_name_H-M  'C2/c'
_cell_length_a       9.25647
_cell_length_b       5.73987
_cell_length_c       5.73987
_cell_angle_alpha    72.2292
_cell_angle_beta     84.5261
_cell_angle_gamma    84.5261

_symmetry_Int_Tables_number  15
_chemical_formula_structural  Fe4OF7
_chemical_formula_sum  Fe8O2F4
_cell_volume  288.381226030206
_cell_formula_units_Z  2
loop_
  _symmetry_equiv_pos_site_id
 _symmetry_equiv_pos_as_xyz
 1  'x, y, z'
loop_
 _atom_site_type_symbol
 _atom_site_label
 _atom_site_symmetry_multiplicity
 _atom_site_fract_x
 _atom_site_fract_y
 _atom_site_fract_z
 _atom_site_fract_occupancy
 F  F1  1  0.77133  0.03807  0.01321  1
 F  F2  1  0.75376  0.55439  0.94723  1
 F  F3  1  0.00000  0.27722  0.72278  1
 F  F4  1  0.74624  0.94561  0.55277  1
 F  F5  1  0.22867  0.98679  0.96193  1
 F  F6  1  0.47443  0.73280  0.72559  1
 F  F7  1  0.50000  0.22278  0.77722  1
 F  F8  1  0.97443  0.22559  0.23280  1
 F  F9  1  0.27133  0.51321  0.53807  1
 F  F10  1  0.02557  0.76720  0.77441  1
 F  F11  1  0.52557  0.27441  0.26720  1
 F  F12  1  0.25376  0.44723  0.05439  1
 F  F13  1  0.24624  0.05277  0.44561  1
 F  F14  1  0.72867  0.46193  0.48679  1
 Fe  Fe1  1  0.00000  0.97485  0.02515  1
 Fe  Fe2  1  0.38507  0.10957  0.11924  1
 Fe  Fe3  1  0.11493  0.39043  0.38076  1
 Fe  Fe4  1  0.75000  0.25000  0.25000  1
 Fe  Fe5  1  0.25000  0.75000  0.75000  1
 Fe  Fe6  1  0.50000  0.52515  0.47485  1
 Fe  Fe7  1  0.88507  0.61924  0.60957  1
 Fe  Fe8  1  0.61493  0.88076  0.89043  1
 O  O1  1  -0.00000  0.69943  0.30057  1
 O  O2  1  0.50000  0.80057  0.19943  1
