CIF file written using JARVIS-Tools package.
data_NiH16C4S4N8Cl2
_symmetry_space_group_name_H-M  'I4'
_cell_length_a       8.07108
_cell_length_b       8.07108
_cell_length_c       8.07108
_cell_angle_alpha    106.996
_cell_angle_beta     106.996
_cell_angle_gamma    114.543

_symmetry_Int_Tables_number  79
_chemical_formula_structural  NiH16C4S4N8Cl2
_chemical_formula_sum  NiH6C4S4N8Cl2
_cell_volume  402.3369951378604
_cell_formula_units_Z  1
loop_
  _symmetry_equiv_pos_site_id
 _symmetry_equiv_pos_as_xyz
 1  'x, y, z'
loop_
 _atom_site_type_symbol
 _atom_site_label
 _atom_site_symmetry_multiplicity
 _atom_site_fract_x
 _atom_site_fract_y
 _atom_site_fract_z
 _atom_site_fract_occupancy
 C  C1  1  0.24735  0.07427  0.47813  1
 C  C2  1  0.07427  0.59615  0.82692  1
 C  C3  1  0.76923  0.24735  0.17308  1
 C  C4  1  0.59615  0.76923  0.52187  1
 Cl  Cl1  1  0.72254  0.72254  0.00000  1
 Cl  Cl2  1  0.28856  0.28856  0.00000  1
 H  H1  1  0.44301  0.45042  0.41439  1
 H  H2  1  0.03603  0.02862  0.58561  1
 H  H3  1  0.61282  0.60529  0.66903  1
 H  H4  1  0.94379  0.61282  0.00753  1
 H  H5  1  0.60529  0.93626  0.99247  1
 H  H6  1  0.39468  0.18266  0.77791  1
 H  H7  1  0.88832  0.55191  0.35376  1
 H  H8  1  0.19815  0.53455  0.64624  1
 H  H9  1  0.93626  0.94379  0.33097  1
 H  H10  1  0.55191  0.19815  0.66359  1
 H  H11  1  0.61677  0.39468  0.21202  1
 H  H12  1  0.18266  0.40475  0.78798  1
 H  H13  1  0.40475  0.61677  0.22209  1
 H  H14  1  0.45042  0.03603  0.00741  1
 H  H15  1  0.02862  0.44301  0.99259  1
 H  H16  1  0.53455  0.88832  0.33641  1
 N  N1  1  0.06022  0.00878  0.46542  1
 N  N2  1  0.54336  0.59480  0.53458  1
 N  N3  1  0.00878  0.54336  0.94856  1
 N  N4  1  0.75748  0.41049  0.25145  1
 N  N5  1  0.15904  0.50603  0.74855  1
 N  N6  1  0.50603  0.75748  0.34699  1
 N  N7  1  0.41049  0.15904  0.65301  1
 N  N8  1  0.59480  0.06022  0.05144  1
 Ni  Ni1  1  -0.00016  -0.00016  -0.00000  1
 S  S1  1  0.05540  0.77936  0.77105  1
 S  S2  1  0.00832  0.28435  0.22895  1
 S  S3  1  0.77936  0.00832  0.72397  1
 S  S4  1  0.28435  0.05540  0.27603  1
