CIF file written using JARVIS-Tools package.
data_PaCl5
_symmetry_space_group_name_H-M  'C2/c'
_cell_length_a       6.87563
_cell_length_b       6.87563
_cell_length_c       8.44794
_cell_angle_alpha    99.5087
_cell_angle_beta     99.5087
_cell_angle_gamma    110.411

_symmetry_Int_Tables_number  15
_chemical_formula_structural  PaCl5
_chemical_formula_sum  Pa2Cl0
_cell_volume  358.2679303844835
_cell_formula_units_Z  2
loop_
  _symmetry_equiv_pos_site_id
 _symmetry_equiv_pos_as_xyz
 1  'x, y, z'
loop_
 _atom_site_type_symbol
 _atom_site_label
 _atom_site_symmetry_multiplicity
 _atom_site_fract_x
 _atom_site_fract_y
 _atom_site_fract_z
 _atom_site_fract_occupancy
 Cl  Cl1  1  0.14729  0.88434  0.93893  1
 Cl  Cl2  1  0.11566  0.85271  0.56107  1
 Cl  Cl3  1  0.70446  0.29554  0.75000  1
 Cl  Cl4  1  0.29554  0.70446  0.25000  1
 Cl  Cl5  1  0.59968  0.73765  0.65567  1
 Cl  Cl6  1  0.26235  0.40032  0.84433  1
 Cl  Cl7  1  0.40032  0.26235  0.34433  1
 Cl  Cl8  1  0.73765  0.59968  0.15567  1
 Cl  Cl9  1  0.88434  0.14729  0.43893  1
 Cl  Cl10  1  0.85271  0.11566  0.06107  1
 Pa  Pa1  1  0.07315  0.92685  0.25000  1
 Pa  Pa2  1  0.92685  0.07315  0.75000  1
