CIF file written using JARVIS-Tools package.
data_TaAsO4
_symmetry_space_group_name_H-M  'Pc'
_cell_length_a       5.09252
_cell_length_b       5.54249
_cell_length_c       5.61468
_cell_angle_alpha    90
_cell_angle_beta     99.765
_cell_angle_gamma    90

_symmetry_Int_Tables_number  7
_chemical_formula_structural  TaAsO4
_chemical_formula_sum  Ta2As2O8
_cell_volume  156.17951757903532
_cell_formula_units_Z  2
loop_
  _symmetry_equiv_pos_site_id
 _symmetry_equiv_pos_as_xyz
 1  'x, y, z'
loop_
 _atom_site_type_symbol
 _atom_site_label
 _atom_site_symmetry_multiplicity
 _atom_site_fract_x
 _atom_site_fract_y
 _atom_site_fract_z
 _atom_site_fract_occupancy
 As  As1  1  0.04811  0.18777  0.93239  1
 As  As2  1  0.04811  0.81223  0.43239  1
 O  O1  1  0.79157  0.86721  0.16172  1
 O  O2  1  0.66148  0.39601  0.22640  1
 O  O3  1  0.26430  0.60656  0.28778  1
 O  O4  1  0.25863  0.07735  0.39761  1
 O  O5  1  0.79157  0.13279  0.66172  1
 O  O6  1  0.66148  0.60399  0.72640  1
 O  O7  1  0.26430  0.39344  0.78778  1
 O  O8  1  0.25863  0.92265  0.89761  1
 Ta  Ta1  1  0.50406  0.33504  0.50905  1
 Ta  Ta2  1  0.50406  0.66496  0.00905  1
