CIF file written using JARVIS-Tools package.
data_TmBrO
_symmetry_space_group_name_H-M  'Pmmn'
_cell_length_a       4.10477
_cell_length_b       3.76578
_cell_length_c       8.91938
_cell_angle_alpha    90
_cell_angle_beta     90
_cell_angle_gamma    90

_symmetry_Int_Tables_number  59
_chemical_formula_structural  TmBrO
_chemical_formula_sum  Tm2Br2O2
_cell_volume  137.87272464327648
_cell_formula_units_Z  2
loop_
  _symmetry_equiv_pos_site_id
 _symmetry_equiv_pos_as_xyz
 1  'x, y, z'
loop_
 _atom_site_type_symbol
 _atom_site_label
 _atom_site_symmetry_multiplicity
 _atom_site_fract_x
 _atom_site_fract_y
 _atom_site_fract_z
 _atom_site_fract_occupancy
 Br  Br1  1  0.25000  0.75000  0.34420  1
 Br  Br2  1  0.75000  0.25000  0.65580  1
 O  O1  1  0.25000  0.75000  0.97345  1
 O  O2  1  0.75000  0.25000  0.02655  1
 Tm  Tm1  1  0.25000  0.25000  0.11444  1
 Tm  Tm2  1  0.75000  0.75000  0.88556  1
