CIF file written using JARVIS-Tools package.
data_LiCoGeO4
_symmetry_space_group_name_H-M  'Pc'
_cell_length_a       5.06221
_cell_length_b       5.61315
_cell_length_c       8.02604
_cell_angle_alpha    90
_cell_angle_beta     129.087
_cell_angle_gamma    90

_symmetry_Int_Tables_number  7
_chemical_formula_structural  LiCoGeO4
_chemical_formula_sum  Li2Co2Ge2O8
_cell_volume  177.01842888284375
_cell_formula_units_Z  2
loop_
  _symmetry_equiv_pos_site_id
 _symmetry_equiv_pos_as_xyz
 1  'x, y, z'
loop_
 _atom_site_type_symbol
 _atom_site_label
 _atom_site_symmetry_multiplicity
 _atom_site_fract_x
 _atom_site_fract_y
 _atom_site_fract_z
 _atom_site_fract_occupancy
 Co  Co1  1  0.99235  0.17676  0.99727  1
 Co  Co2  1  0.99235  0.82324  0.49727  1
 Ge  Ge1  1  0.50069  0.84170  0.00082  1
 Ge  Ge2  1  0.50069  0.15830  0.50082  1
 Li  Li1  1  0.74709  0.66277  0.75124  1
 Li  Li2  1  0.74709  0.33723  0.25124  1
 O  O1  1  0.83234  0.86722  0.98053  1
 O  O2  1  0.38375  0.13484  0.02186  1
 O  O3  1  0.13928  0.70366  0.76152  1
 O  O4  1  0.65945  0.32828  0.73647  1
 O  O5  1  0.38375  0.86516  0.52186  1
 O  O6  1  0.83234  0.13278  0.48053  1
 O  O7  1  0.13928  0.29634  0.26152  1
 O  O8  1  0.65945  0.67172  0.23647  1
