CIF file written using JARVIS-Tools package.
data_BaYF5
_symmetry_space_group_name_H-M  'C2/c'
_cell_length_a       8.41488
_cell_length_b       8.41488
_cell_length_c       5.89759
_cell_angle_alpha    89.3291
_cell_angle_beta     90.6709
_cell_angle_gamma    30.7226

_symmetry_Int_Tables_number  15
_chemical_formula_structural  BaYF5
_chemical_formula_sum  Ba2Y2F0
_cell_volume  213.14080641009522
_cell_formula_units_Z  2
loop_
  _symmetry_equiv_pos_site_id
 _symmetry_equiv_pos_as_xyz
 1  'x, y, z'
loop_
 _atom_site_type_symbol
 _atom_site_label
 _atom_site_symmetry_multiplicity
 _atom_site_fract_x
 _atom_site_fract_y
 _atom_site_fract_z
 _atom_site_fract_occupancy
 Ba  Ba1  1  0.67244  0.67244  0.75000  1
 Ba  Ba2  1  0.32756  0.32756  0.25000  1
 F  F1  1  0.26189  0.80600  0.59280  1
 F  F2  1  0.19400  0.73811  0.09280  1
 F  F3  1  0.19549  0.17205  0.01035  1
 F  F4  1  0.38101  0.38101  0.75000  1
 F  F5  1  0.17205  0.19549  0.48965  1
 F  F6  1  0.82795  0.80451  0.51035  1
 F  F7  1  0.61899  0.61899  0.25000  1
 F  F8  1  0.80451  0.82795  0.98965  1
 F  F9  1  0.80600  0.26189  0.90720  1
 F  F10  1  0.73811  0.19400  0.40720  1
 Y  Y1  1  0.92590  0.92590  0.75000  1
 Y  Y2  1  0.07410  0.07410  0.25000  1
