CIF file written using JARVIS-Tools package.
data_CdCl2
_symmetry_space_group_name_H-M  'P-3m1'
_cell_length_a       11.7821
_cell_length_b       3.87233
_cell_length_c       6.97437
_cell_angle_alpha    123.908
_cell_angle_beta     150.117
_cell_angle_gamma    34.6114

_symmetry_Int_Tables_number  164
_chemical_formula_structural  CdCl2
_chemical_formula_sum  CdCl2
_cell_volume  75.1863235945263
_cell_formula_units_Z  1
loop_
  _symmetry_equiv_pos_site_id
 _symmetry_equiv_pos_as_xyz
 1  'x, y, z'
loop_
 _atom_site_type_symbol
 _atom_site_label
 _atom_site_symmetry_multiplicity
 _atom_site_fract_x
 _atom_site_fract_y
 _atom_site_fract_z
 _atom_site_fract_occupancy
 Cd  Cd1  1  0.01257  0.99185  0.01510  1
 Cl  Cl1  1  0.67944  0.24291  0.93240  1
 Cl  Cl2  1  0.34570  0.74079  0.09777  1
