CIF file written using JARVIS-Tools package.
data_NaDyO2
_symmetry_space_group_name_H-M  'C2/c'
_cell_length_a       8.29106
_cell_length_b       8.29106
_cell_length_c       6.03505
_cell_angle_alpha    59.9381
_cell_angle_beta     120.062
_cell_angle_gamma    73.823

_symmetry_Int_Tables_number  15
_chemical_formula_structural  NaDyO2
_chemical_formula_sum  Na4Dy4O8
_cell_volume  219.7894537296374
_cell_formula_units_Z  4
loop_
  _symmetry_equiv_pos_site_id
 _symmetry_equiv_pos_as_xyz
 1  'x, y, z'
loop_
 _atom_site_type_symbol
 _atom_site_label
 _atom_site_symmetry_multiplicity
 _atom_site_fract_x
 _atom_site_fract_y
 _atom_site_fract_z
 _atom_site_fract_occupancy
 Dy  Dy1  1  0.18267  0.18267  0.75000  1
 Dy  Dy2  1  0.44323  0.44323  0.75000  1
 Dy  Dy3  1  0.81733  0.81733  0.25000  1
 Dy  Dy4  1  0.55677  0.55677  0.25000  1
 Na  Na1  1  0.69434  0.69434  0.75000  1
 Na  Na2  1  0.93029  0.93029  0.75000  1
 Na  Na3  1  0.06971  0.06971  0.25000  1
 Na  Na4  1  0.30566  0.30566  0.25000  1
 O  O1  1  0.20688  0.66926  0.74922  1
 O  O2  1  0.43885  0.93446  0.79406  1
 O  O3  1  0.33074  0.79312  0.24922  1
 O  O4  1  0.06554  0.56115  0.29406  1
 O  O5  1  0.93446  0.43885  0.70594  1
 O  O6  1  0.66926  0.20688  0.75078  1
 O  O7  1  0.56115  0.06554  0.20594  1
 O  O8  1  0.79312  0.33074  0.25078  1
