CIF file written using JARVIS-Tools package.
data_LiCaTa2O6F
_symmetry_space_group_name_H-M  'Imma'
_cell_length_a       7.36995
_cell_length_b       7.43584
_cell_length_c       7.36995
_cell_angle_alpha    59.7038
_cell_angle_beta     59.6102
_cell_angle_gamma    59.7038

_symmetry_Int_Tables_number  74
_chemical_formula_structural  LiCaTa2O6F
_chemical_formula_sum  Li2Ca2Ta4O2F2
_cell_volume  283.46612681156836
_cell_formula_units_Z  2
loop_
  _symmetry_equiv_pos_site_id
 _symmetry_equiv_pos_as_xyz
 1  'x, y, z'
loop_
 _atom_site_type_symbol
 _atom_site_label
 _atom_site_symmetry_multiplicity
 _atom_site_fract_x
 _atom_site_fract_y
 _atom_site_fract_z
 _atom_site_fract_occupancy
 Ca  Ca1  1  0.50000  0.00000  0.50000  1
 Ca  Ca2  1  0.50000  0.50000  0.50000  1
 F  F1  1  0.36739  0.38261  0.36739  1
 F  F2  1  0.63261  0.61739  0.63261  1
 Li  Li1  1  0.50000  0.50000  -0.00000  1
 Li  Li2  1  -0.00000  0.50000  0.50000  1
 O  O1  1  0.67503  0.07497  0.67503  1
 O  O2  1  0.32207  0.31876  0.92517  1
 O  O3  1  0.06541  0.68459  0.06541  1
 O  O4  1  0.93459  0.31541  0.93459  1
 O  O5  1  0.92517  0.93400  0.32207  1
 O  O6  1  0.32207  0.93400  0.92517  1
 O  O7  1  0.92517  0.31876  0.32207  1
 O  O8  1  0.07483  0.06600  0.67793  1
 O  O9  1  0.67793  0.68124  0.07483  1
 O  O10  1  0.32497  0.92503  0.32497  1
 O  O11  1  0.07483  0.68124  0.67793  1
 O  O12  1  0.67793  0.06600  0.07483  1
 Ta  Ta1  1  -0.00000  0.50000  -0.00000  1
 Ta  Ta2  1  0.00000  0.00000  0.50000  1
 Ta  Ta3  1  0.50000  -0.00000  -0.00000  1
 Ta  Ta4  1  0.00000  0.00000  0.00000  1
