CIF file written using JARVIS-Tools package.
data_AgAuO2
_symmetry_space_group_name_H-M  'P2_1/c'
_cell_length_a       5.53617
_cell_length_b       3.89692
_cell_length_c       5.68396
_cell_angle_alpha    90
_cell_angle_beta     105.376
_cell_angle_gamma    90

_symmetry_Int_Tables_number  14
_chemical_formula_structural  AgAuO2
_chemical_formula_sum  Ag2Au2O4
_cell_volume  118.23673912425227
_cell_formula_units_Z  2
loop_
  _symmetry_equiv_pos_site_id
 _symmetry_equiv_pos_as_xyz
 1  'x, y, z'
loop_
 _atom_site_type_symbol
 _atom_site_label
 _atom_site_symmetry_multiplicity
 _atom_site_fract_x
 _atom_site_fract_y
 _atom_site_fract_z
 _atom_site_fract_occupancy
 Ag  Ag1  1  -0.00000  0.50000  0.50000  1
 Ag  Ag2  1  0.50000  0.00000  0.50000  1
 Au  Au1  1  0.50000  0.50000  0.00000  1
 Au  Au2  1  0.00000  0.00000  0.00000  1
 O  O1  1  0.21741  0.79336  0.80039  1
 O  O2  1  0.28259  0.29336  0.19961  1
 O  O3  1  0.78259  0.20664  0.19961  1
 O  O4  1  0.71741  0.70664  0.80039  1
