CIF file written using JARVIS-Tools package.
data_Na3NiO2
_symmetry_space_group_name_H-M  'Pnma'
_cell_length_a       5.4689
_cell_length_b       6.27048
_cell_length_c       10.7188
_cell_angle_alpha    90
_cell_angle_beta     90
_cell_angle_gamma    90

_symmetry_Int_Tables_number  62
_chemical_formula_structural  Na3NiO2
_chemical_formula_sum  Na2Ni4O8
_cell_volume  367.5743660430693
_cell_formula_units_Z  4
loop_
  _symmetry_equiv_pos_site_id
 _symmetry_equiv_pos_as_xyz
 1  'x, y, z'
loop_
 _atom_site_type_symbol
 _atom_site_label
 _atom_site_symmetry_multiplicity
 _atom_site_fract_x
 _atom_site_fract_y
 _atom_site_fract_z
 _atom_site_fract_occupancy
 Na  Na1  1  0.79095  0.50000  0.08426  1
 Na  Na2  1  0.37003  0.24854  0.14360  1
 Na  Na3  1  0.37003  0.75146  0.14360  1
 Na  Na4  1  0.87003  0.25146  0.35640  1
 Na  Na5  1  0.87003  0.74854  0.35640  1
 Na  Na6  1  0.20905  0.00000  0.91574  1
 Na  Na7  1  0.29095  0.00000  0.41574  1
 Na  Na8  1  0.12997  0.75146  0.64360  1
 Na  Na9  1  0.12997  0.24854  0.64360  1
 Na  Na10  1  0.62997  0.25146  0.85640  1
 Na  Na11  1  0.62997  0.74854  0.85640  1
 Na  Na12  1  0.70905  0.50000  0.58426  1
 Ni  Ni1  1  0.85301  0.00000  0.11608  1
 Ni  Ni2  1  0.35301  0.50000  0.38392  1
 Ni  Ni3  1  0.64699  0.00000  0.61608  1
 Ni  Ni4  1  0.14699  0.50000  0.88392  1
 O  O1  1  0.40440  0.00000  0.72651  1
 O  O2  1  0.90441  0.50000  0.77350  1
 O  O3  1  0.59435  0.00000  0.01765  1
 O  O4  1  0.09560  0.00000  0.22651  1
 O  O5  1  0.59560  0.50000  0.27349  1
 O  O6  1  0.09435  0.50000  0.48235  1
 O  O7  1  0.90565  0.00000  0.51765  1
 O  O8  1  0.40565  0.50000  0.98235  1
