CIF file written using JARVIS-Tools package.
data_Hg2SO4
_symmetry_space_group_name_H-M  'P2/c'
_cell_length_a       6.34258
_cell_length_b       4.45297
_cell_length_c       8.51955
_cell_angle_alpha    90
_cell_angle_beta     92.8223
_cell_angle_gamma    90

_symmetry_Int_Tables_number  13
_chemical_formula_structural  Hg2SO4
_chemical_formula_sum  Hg4S2O8
_cell_volume  240.32854889932176
_cell_formula_units_Z  2
loop_
  _symmetry_equiv_pos_site_id
 _symmetry_equiv_pos_as_xyz
 1  'x, y, z'
loop_
 _atom_site_type_symbol
 _atom_site_label
 _atom_site_symmetry_multiplicity
 _atom_site_fract_x
 _atom_site_fract_y
 _atom_site_fract_z
 _atom_site_fract_occupancy
 Hg  Hg1  1  0.19022  0.06697  0.46995  1
 Hg  Hg2  1  0.80978  0.06697  0.03005  1
 Hg  Hg3  1  0.80978  0.93303  0.53005  1
 Hg  Hg4  1  0.19022  0.93303  0.96995  1
 O  O1  1  0.50348  0.76276  0.60655  1
 O  O2  1  0.49652  0.76276  0.89345  1
 O  O3  1  0.49652  0.23724  0.39345  1
 O  O4  1  0.50348  0.23724  0.10655  1
 O  O5  1  0.69584  0.38525  0.76181  1
 O  O6  1  0.30416  0.38525  0.73819  1
 O  O7  1  0.69584  0.61475  0.26181  1
 O  O8  1  0.30416  0.61475  0.23819  1
 S  S1  1  0.50000  0.44034  0.25000  1
 S  S2  1  0.50000  0.55966  0.75000  1
