CIF file written using JARVIS-Tools package.
data_Ag2H2IOF
_symmetry_space_group_name_H-M  'P2_1'
_cell_length_a       4.707
_cell_length_b       7.87884
_cell_length_c       6.15193
_cell_angle_alpha    90
_cell_angle_beta     97.1076
_cell_angle_gamma    90

_symmetry_Int_Tables_number  4
_chemical_formula_structural  Ag2H2IOF
_chemical_formula_sum  Ag4H4I2O2F2
_cell_volume  226.39582469934635
_cell_formula_units_Z  2
loop_
  _symmetry_equiv_pos_site_id
 _symmetry_equiv_pos_as_xyz
 1  'x, y, z'
loop_
 _atom_site_type_symbol
 _atom_site_label
 _atom_site_symmetry_multiplicity
 _atom_site_fract_x
 _atom_site_fract_y
 _atom_site_fract_z
 _atom_site_fract_occupancy
 Ag  Ag1  1  0.89811  0.46558  0.69826  1
 Ag  Ag2  1  0.10189  -0.03442  0.30174  1
 Ag  Ag3  1  0.99892  0.09705  0.71595  1
 Ag  Ag4  1  0.00108  0.59705  0.28405  1
 F  F1  1  0.31614  0.92785  -0.02839  1
 F  F2  1  0.68386  0.42785  0.02839  1
 H  H1  1  0.28047  0.73033  0.95678  1
 H  H2  1  0.71953  0.23033  0.04322  1
 H  H3  1  0.41443  0.53758  -0.00312  1
 H  H4  1  0.58557  0.03758  0.00312  1
 I  I1  1  0.66386  0.79750  0.52202  1
 I  I2  1  0.33614  0.29750  0.47798  1
 O  O1  1  0.23136  0.60680  -0.02503  1
 O  O2  1  0.76864  0.10680  0.02503  1
