CIF file written using JARVIS-Tools package.
data_SiRh
_symmetry_space_group_name_H-M  'P2_1/c'
_cell_length_a       4.62489
_cell_length_b       4.59493
_cell_length_c       5.67288
_cell_angle_alpha    90
_cell_angle_beta     114.595
_cell_angle_gamma    90

_symmetry_Int_Tables_number  14
_chemical_formula_structural  SiRh
_chemical_formula_sum  Si4Rh4
_cell_volume  109.6166224142904
_cell_formula_units_Z  4
loop_
  _symmetry_equiv_pos_site_id
 _symmetry_equiv_pos_as_xyz
 1  'x, y, z'
loop_
 _atom_site_type_symbol
 _atom_site_label
 _atom_site_symmetry_multiplicity
 _atom_site_fract_x
 _atom_site_fract_y
 _atom_site_fract_z
 _atom_site_fract_occupancy
 Rh  Rh1  1  0.29948  0.35883  0.62314  1
 Rh  Rh2  1  0.70052  0.85883  0.87686  1
 Rh  Rh3  1  0.70052  0.64117  0.37686  1
 Rh  Rh4  1  0.29948  0.14117  0.12314  1
 Si  Si1  1  0.78417  0.35315  0.05251  1
 Si  Si2  1  0.21583  0.85315  0.44749  1
 Si  Si3  1  0.21583  0.64685  0.94749  1
 Si  Si4  1  0.78417  0.14685  0.55251  1
