CIF file written using JARVIS-Tools package.
data_Li3CrBAsO7
_symmetry_space_group_name_H-M  'P2_1/m'
_cell_length_a       5.05256
_cell_length_b       6.43529
_cell_length_c       8.47967
_cell_angle_alpha    90
_cell_angle_beta     95.4135
_cell_angle_gamma    90

_symmetry_Int_Tables_number  11
_chemical_formula_structural  Li3CrBAsO7
_chemical_formula_sum  Li6Cr2B2As2O4
_cell_volume  274.484237772642
_cell_formula_units_Z  2
loop_
  _symmetry_equiv_pos_site_id
 _symmetry_equiv_pos_as_xyz
 1  'x, y, z'
loop_
 _atom_site_type_symbol
 _atom_site_label
 _atom_site_symmetry_multiplicity
 _atom_site_fract_x
 _atom_site_fract_y
 _atom_site_fract_z
 _atom_site_fract_occupancy
 As  As1  1  0.72644  0.25000  0.57762  1
 As  As2  1  0.27356  0.75000  0.42238  1
 B  B1  1  0.70164  0.75000  0.96577  1
 B  B2  1  0.29836  0.25000  0.03423  1
 Cr  Cr1  1  0.79072  0.75000  0.69067  1
 Cr  Cr2  1  0.20928  0.25000  0.30933  1
 Li  Li1  1  0.23603  0.75000  0.09438  1
 Li  Li2  1  0.25436  0.99056  0.77229  1
 Li  Li3  1  0.25436  0.50944  0.77229  1
 Li  Li4  1  0.74564  0.49056  0.22771  1
 Li  Li5  1  0.74564  0.00944  0.22771  1
 Li  Li6  1  0.76397  0.25000  0.90562  1
 O  O1  1  0.17307  0.55326  0.29174  1
 O  O2  1  0.95965  0.75000  0.91742  1
 O  O3  1  0.04035  0.25000  0.08258  1
 O  O4  1  0.49097  0.25000  0.16511  1
 O  O5  1  0.17307  0.94674  0.29174  1
 O  O6  1  0.63478  0.75000  0.11639  1
 O  O7  1  0.50903  0.75000  0.83489  1
 O  O8  1  0.13997  0.75000  0.60005  1
 O  O9  1  0.38683  0.25000  0.53097  1
 O  O10  1  0.82693  0.44674  0.70826  1
 O  O11  1  0.82693  0.05326  0.70826  1
 O  O12  1  0.61317  0.75000  0.46903  1
 O  O13  1  0.86003  0.25000  0.39995  1
 O  O14  1  0.36522  0.25000  0.88361  1
