CIF file written using JARVIS-Tools package.
data_CeHfO4
_symmetry_space_group_name_H-M  'C2/c'
_cell_length_a       5.22419
_cell_length_b       6.5477
_cell_length_c       6.5477
_cell_angle_alpha    113.632
_cell_angle_beta     68.8547
_cell_angle_gamma    68.8547

_symmetry_Int_Tables_number  15
_chemical_formula_structural  CeHfO4
_chemical_formula_sum  Ce2Hf2O8
_cell_volume  154.3171795415604
_cell_formula_units_Z  2
loop_
  _symmetry_equiv_pos_site_id
 _symmetry_equiv_pos_as_xyz
 1  'x, y, z'
loop_
 _atom_site_type_symbol
 _atom_site_label
 _atom_site_symmetry_multiplicity
 _atom_site_fract_x
 _atom_site_fract_y
 _atom_site_fract_z
 _atom_site_fract_occupancy
 Ce  Ce1  1  0.75000  0.13401  0.36599  1
 Ce  Ce2  1  0.25000  0.86599  0.63401  1
 Hf  Hf1  1  0.25000  0.40031  0.09969  1
 Hf  Hf2  1  0.75000  0.59969  0.90031  1
 O  O1  1  0.17192  0.10675  0.04538  1
 O  O2  1  0.32808  0.45462  0.39325  1
 O  O3  1  0.76700  0.71706  0.26636  1
 O  O4  1  0.73300  0.23364  0.78294  1
 O  O5  1  0.26700  0.76636  0.21706  1
 O  O6  1  0.23300  0.28294  0.73364  1
 O  O7  1  0.67192  0.54538  0.60675  1
 O  O8  1  0.82808  0.89325  0.95462  1
