CIF file written using JARVIS-Tools package.
data_H2PbO2
_symmetry_space_group_name_H-M  'Pnma'
_cell_length_a       7.99733
_cell_length_b       3.77453
_cell_length_c       9.47897
_cell_angle_alpha    90
_cell_angle_beta     90
_cell_angle_gamma    90

_symmetry_Int_Tables_number  62
_chemical_formula_structural  H2PbO2
_chemical_formula_sum  H8Pb4O8
_cell_volume  286.13324182720834
_cell_formula_units_Z  4
loop_
  _symmetry_equiv_pos_site_id
 _symmetry_equiv_pos_as_xyz
 1  'x, y, z'
loop_
 _atom_site_type_symbol
 _atom_site_label
 _atom_site_symmetry_multiplicity
 _atom_site_fract_x
 _atom_site_fract_y
 _atom_site_fract_z
 _atom_site_fract_occupancy
 H  H1  1  0.97998  0.25000  0.14887  1
 H  H2  1  0.47998  0.25000  0.35113  1
 H  H3  1  0.02002  0.75000  0.85113  1
 H  H4  1  0.52002  0.75000  0.64887  1
 H  H5  1  0.69807  0.25000  0.14346  1
 H  H6  1  0.19807  0.25000  0.35654  1
 H  H7  1  0.30193  0.75000  0.85654  1
 H  H8  1  0.80193  0.75000  0.64346  1
 O  O1  1  0.28134  0.25000  0.43589  1
 O  O2  1  0.78134  0.25000  0.06411  1
 O  O3  1  0.41492  0.75000  0.70558  1
 O  O4  1  0.91492  0.75000  0.79442  1
 O  O5  1  0.58508  0.25000  0.29442  1
 O  O6  1  0.71866  0.75000  0.56411  1
 O  O7  1  0.21866  0.75000  0.93589  1
 O  O8  1  0.08508  0.25000  0.20558  1
 Pb  Pb1  1  0.80502  0.25000  0.43061  1
 Pb  Pb2  1  0.30502  0.25000  0.06939  1
 Pb  Pb3  1  0.69498  0.75000  0.93061  1
 Pb  Pb4  1  0.19498  0.75000  0.56939  1
