CIF file written using JARVIS-Tools package.
data_SrH4O6
_symmetry_space_group_name_H-M  'Cc'
_cell_length_a       5.15745
_cell_length_b       5.15745
_cell_length_c       9.00714
_cell_angle_alpha    104.547
_cell_angle_beta     75.4531
_cell_angle_gamma    110.941

_symmetry_Int_Tables_number  9
_chemical_formula_structural  SrH4O6
_chemical_formula_sum  Sr2H8O2
_cell_volume  213.105547804594
_cell_formula_units_Z  2
loop_
  _symmetry_equiv_pos_site_id
 _symmetry_equiv_pos_as_xyz
 1  'x, y, z'
loop_
 _atom_site_type_symbol
 _atom_site_label
 _atom_site_symmetry_multiplicity
 _atom_site_fract_x
 _atom_site_fract_y
 _atom_site_fract_z
 _atom_site_fract_occupancy
 H  H1  1  0.19564  0.68205  0.95426  1
 H  H2  1  0.47052  0.22391  0.83266  1
 H  H3  1  0.58527  0.14381  0.65689  1
 H  H4  1  0.85619  0.41473  0.15689  1
 H  H5  1  0.31795  0.80436  0.45426  1
 H  H6  1  -0.22391  0.52948  0.33266  1
 H  H7  1  0.33604  0.13488  0.52119  1
 H  H8  1  0.86512  0.66396  0.02119  1
 O  O1  1  0.46348  0.55591  0.93739  1
 O  O2  1  0.44409  0.53652  0.43739  1
 O  O3  1  0.93645  0.36445  0.55171  1
 O  O4  1  0.63555  0.06355  0.05171  1
 O  O5  1  0.21341  0.94532  0.47717  1
 O  O6  1  0.05468  0.78659  0.97717  1
 O  O7  1  0.50981  0.53681  0.07607  1
 O  O8  1  0.61592  -0.05226  0.17554  1
 O  O9  1  -0.05692  0.52800  0.24832  1
 O  O10  1  0.46319  0.49019  0.57607  1
 O  O11  1  0.47200  0.05692  0.74832  1
 O  O12  1  0.05226  0.38408  0.67554  1
 Sr  Sr1  1  0.15765  0.10892  0.24283  1
 Sr  Sr2  1  0.89108  0.84235  0.74283  1
