CIF file written using JARVIS-Tools package.
data_NdTi3FeCu3O12
_symmetry_space_group_name_H-M  'R-3'
_cell_length_a       6.34977
_cell_length_b       6.44883
_cell_length_c       6.44883
_cell_angle_alpha    109.78
_cell_angle_beta     109.16
_cell_angle_gamma    109.16

_symmetry_Int_Tables_number  148
_chemical_formula_structural  NdTi3FeCu3O12
_chemical_formula_sum  NdTi3FeCu3O2
_cell_volume  204.05643563723459
_cell_formula_units_Z  1
loop_
  _symmetry_equiv_pos_site_id
 _symmetry_equiv_pos_as_xyz
 1  'x, y, z'
loop_
 _atom_site_type_symbol
 _atom_site_label
 _atom_site_symmetry_multiplicity
 _atom_site_fract_x
 _atom_site_fract_y
 _atom_site_fract_z
 _atom_site_fract_occupancy
 Cu  Cu1  1  -0.00000  0.50000  0.50000  1
 Cu  Cu2  1  0.50000  0.50000  0.00000  1
 Cu  Cu3  1  0.50000  -0.00000  0.50000  1
 Fe  Fe1  1  0.50000  0.00000  0.00000  1
 Nd  Nd1  1  0.00000  0.00000  0.00000  1
 O  O1  1  0.81517  0.29627  0.11992  1
 O  O2  1  0.87612  0.17716  0.70161  1
 O  O3  1  0.82550  0.70161  0.52446  1
 O  O4  1  0.69525  0.88008  0.17635  1
 O  O5  1  0.48110  0.17635  0.29627  1
 O  O6  1  0.69896  0.52446  0.82284  1
 O  O7  1  0.17450  0.29839  0.47554  1
 O  O8  1  0.30475  0.11992  0.82365  1
 O  O9  1  0.18483  0.70373  0.88008  1
 O  O10  1  0.12388  0.82284  0.29839  1
 O  O11  1  0.30104  0.47554  0.17716  1
 O  O12  1  0.51890  0.82365  0.70373  1
 Ti  Ti1  1  -0.00000  -0.00000  0.50000  1
 Ti  Ti2  1  0.50000  0.50000  0.50000  1
 Ti  Ti3  1  -0.00000  0.50000  0.00000  1
