CIF file written using JARVIS-Tools package.
data_TiBi2O5
_symmetry_space_group_name_H-M  'Cmc2_1'
_cell_length_a       5.63024
_cell_length_b       8.39606
_cell_length_c       5.52754
_cell_angle_alpha    89.9996
_cell_angle_beta     90
_cell_angle_gamma    70.4098

_symmetry_Int_Tables_number  36
_chemical_formula_structural  TiBi2O5
_chemical_formula_sum  Ti2Bi4O0
_cell_volume  246.1719494204661
_cell_formula_units_Z  2
loop_
  _symmetry_equiv_pos_site_id
 _symmetry_equiv_pos_as_xyz
 1  'x, y, z'
loop_
 _atom_site_type_symbol
 _atom_site_label
 _atom_site_symmetry_multiplicity
 _atom_site_fract_x
 _atom_site_fract_y
 _atom_site_fract_z
 _atom_site_fract_occupancy
 Bi  Bi1  1  0.95675  0.65738  0.75620  1
 Bi  Bi2  1  0.38588  0.65738  0.25620  1
 Bi  Bi3  1  0.61750  0.33588  0.75620  1
 Bi  Bi4  1  0.04662  0.33588  0.25620  1
 O  O1  1  0.25417  0.80549  0.65888  1
 O  O2  1  0.94034  0.80549  0.15888  1
 O  O3  1  0.24300  0.49156  0.48520  1
 O  O4  1  0.26545  0.49156  0.98520  1
 O  O5  1  0.76037  0.50170  0.98520  1
 O  O6  1  0.73793  0.50170  0.48520  1
 O  O7  1  0.06302  0.18777  0.65888  1
 O  O8  1  0.74921  0.18777  0.15888  1
 O  O9  1  0.59935  0.99663  0.56342  1
 O  O10  1  0.40402  0.99663  0.06342  1
 Ti  Ti1  1  0.31417  0.99663  0.73621  1
 Ti  Ti2  1  0.68920  0.99663  0.23621  1
