CIF file written using JARVIS-Tools package.
data_LiCaPrTeO6
_symmetry_space_group_name_H-M  'Pc'
_cell_length_a       5.52913
_cell_length_b       5.72868
_cell_length_c       9.54439
_cell_angle_alpha    90
_cell_angle_beta     124.858
_cell_angle_gamma    90

_symmetry_Int_Tables_number  7
_chemical_formula_structural  LiCaPrTeO6
_chemical_formula_sum  Li2Ca2Pr2Te2O2
_cell_volume  248.0715239903234
_cell_formula_units_Z  2
loop_
  _symmetry_equiv_pos_site_id
 _symmetry_equiv_pos_as_xyz
 1  'x, y, z'
loop_
 _atom_site_type_symbol
 _atom_site_label
 _atom_site_symmetry_multiplicity
 _atom_site_fract_x
 _atom_site_fract_y
 _atom_site_fract_z
 _atom_site_fract_occupancy
 Ca  Ca1  1  0.26346  0.69489  0.75045  1
 Ca  Ca2  1  0.26346  0.30511  0.25045  1
 Li  Li1  1  0.50026  0.26405  0.00153  1
 Li  Li2  1  0.50026  0.73595  0.50153  1
 O  O1  1  0.14910  0.71559  0.23955  1
 O  O2  1  0.23650  0.02783  0.05125  1
 O  O3  1  0.33015  0.44457  0.54492  1
 O  O4  1  0.66904  0.93517  0.95424  1
 O  O5  1  0.76347  0.46414  0.95069  1
 O  O6  1  0.85450  0.22432  0.26010  1
 O  O7  1  0.14910  0.28441  0.73955  1
 O  O8  1  0.33015  0.55543  0.04492  1
 O  O9  1  0.23650  0.97217  0.55125  1
 O  O10  1  0.66904  0.06483  0.45424  1
 O  O11  1  0.76347  0.53586  0.45069  1
 O  O12  1  0.85450  0.77568  0.76010  1
 Pr  Pr1  1  0.73414  0.80793  0.24804  1
 Pr  Pr2  1  0.73414  0.19207  0.74804  1
 Te  Te1  1  0.99938  0.25633  0.49923  1
 Te  Te2  1  0.99938  0.74367  0.99923  1
