CIF file written using JARVIS-Tools package.
data_SmCuO3
_symmetry_space_group_name_H-M  'R-3c'
_cell_length_a       5.30379
_cell_length_b       5.30379
_cell_length_c       5.30379
_cell_angle_alpha    62.7241
_cell_angle_beta     62.7241
_cell_angle_gamma    62.7241

_symmetry_Int_Tables_number  167
_chemical_formula_structural  SmCuO3
_chemical_formula_sum  Sm2Cu2O6
_cell_volume  111.89198062390238
_cell_formula_units_Z  2
loop_
  _symmetry_equiv_pos_site_id
 _symmetry_equiv_pos_as_xyz
 1  'x, y, z'
loop_
 _atom_site_type_symbol
 _atom_site_label
 _atom_site_symmetry_multiplicity
 _atom_site_fract_x
 _atom_site_fract_y
 _atom_site_fract_z
 _atom_site_fract_occupancy
 Cu  Cu1  1  0.00000  0.00000  0.00000  1
 Cu  Cu2  1  0.50000  0.50000  0.50000  1
 O  O1  1  0.17223  0.75000  0.32777  1
 O  O2  1  0.25000  0.67223  0.82777  1
 O  O3  1  0.67223  0.82777  0.25000  1
 O  O4  1  0.32777  0.17223  0.75000  1
 O  O5  1  0.75000  0.32777  0.17223  1
 O  O6  1  0.82777  0.25000  0.67223  1
 Sm  Sm1  1  0.25000  0.25000  0.25000  1
 Sm  Sm2  1  0.75000  0.75000  0.75000  1
