CIF file written using JARVIS-Tools package.
data_Zn2CuRh
_symmetry_space_group_name_H-M  'Immm'
_cell_length_a       9.57205
_cell_length_b       9.85511
_cell_length_c       9.85511
_cell_angle_alpha    61.5886
_cell_angle_beta     60.9457
_cell_angle_gamma    60.9457

_symmetry_Int_Tables_number  71
_chemical_formula_structural  Zn2CuRh
_chemical_formula_sum  Zn2CuRh
_cell_volume  674.4767338773279
_cell_formula_units_Z  1
loop_
  _symmetry_equiv_pos_site_id
 _symmetry_equiv_pos_as_xyz
 1  'x, y, z'
loop_
 _atom_site_type_symbol
 _atom_site_label
 _atom_site_symmetry_multiplicity
 _atom_site_fract_x
 _atom_site_fract_y
 _atom_site_fract_z
 _atom_site_fract_occupancy
 Cu  Cu1  1  0.00000  0.00000  0.00000  1
 Rh  Rh1  1  0.50000  -0.00000  -0.00000  1
 Zn  Zn1  1  0.75335  0.00000  -0.00000  1
 Zn  Zn2  1  0.24665  -0.00000  0.00000  1
