CIF file written using JARVIS-Tools package.
data_SrLiTa2O6F
_symmetry_space_group_name_H-M  'Imma'
_cell_length_a       7.44065
_cell_length_b       7.44066
_cell_length_c       7.39791
_cell_angle_alpha    60.1898
_cell_angle_beta     60.1898
_cell_angle_gamma    60.5592

_symmetry_Int_Tables_number  74
_chemical_formula_structural  SrLiTa2O6F
_chemical_formula_sum  Sr2Li2Ta4O2F2
_cell_volume  291.65468509606785
_cell_formula_units_Z  2
loop_
  _symmetry_equiv_pos_site_id
 _symmetry_equiv_pos_as_xyz
 1  'x, y, z'
loop_
 _atom_site_type_symbol
 _atom_site_label
 _atom_site_symmetry_multiplicity
 _atom_site_fract_x
 _atom_site_fract_y
 _atom_site_fract_z
 _atom_site_fract_occupancy
 F  F1  1  0.52585  0.52585  0.47415  1
 F  F2  1  0.72415  0.72415  0.77585  1
 Li  Li1  1  0.62500  0.62500  0.12500  1
 Li  Li2  1  0.62500  0.62500  0.62500  1
 O  O1  1  0.44058  0.06059  0.44392  1
 O  O2  1  0.06059  0.44058  0.05491  1
 O  O3  1  0.05325  0.05325  0.44675  1
 O  O4  1  0.06059  0.44058  0.44392  1
 O  O5  1  0.44058  0.06059  0.05491  1
 O  O6  1  0.18941  0.80942  0.19509  1
 O  O7  1  0.43674  0.43674  0.06326  1
 O  O8  1  0.19675  0.19675  0.80325  1
 O  O9  1  0.80942  0.18941  0.19509  1
 O  O10  1  0.80942  0.18941  0.80608  1
 O  O11  1  0.81326  0.81326  0.18674  1
 O  O12  1  0.18941  0.80942  0.80608  1
 Sr  Sr1  1  0.12500  0.62500  0.62500  1
 Sr  Sr2  1  0.62500  0.12500  0.62500  1
 Ta  Ta1  1  0.12500  0.12500  0.62500  1
 Ta  Ta2  1  0.12500  0.12500  0.12500  1
 Ta  Ta3  1  0.12500  0.62500  0.12500  1
 Ta  Ta4  1  0.62500  0.12500  0.12500  1
