CIF file written using JARVIS-Tools package.
data_V3CuO8
_symmetry_space_group_name_H-M  'Cm'
_cell_length_a       6.17311
_cell_length_b       6.17311
_cell_length_c       6.56214
_cell_angle_alpha    75.0643
_cell_angle_beta     104.936
_cell_angle_gamma    144.989

_symmetry_Int_Tables_number  8
_chemical_formula_structural  V3CuO8
_chemical_formula_sum  V3CuO8
_cell_volume  138.13152881444285
_cell_formula_units_Z  1
loop_
  _symmetry_equiv_pos_site_id
 _symmetry_equiv_pos_as_xyz
 1  'x, y, z'
loop_
 _atom_site_type_symbol
 _atom_site_label
 _atom_site_symmetry_multiplicity
 _atom_site_fract_x
 _atom_site_fract_y
 _atom_site_fract_z
 _atom_site_fract_occupancy
 Cu  Cu1  1  0.70502  0.29498  0.29679  1
 O  O1  1  0.13067  0.86933  0.68347  1
 O  O2  1  0.24529  0.75471  0.36113  1
 O  O3  1  0.36130  0.63870  0.98877  1
 O  O4  1  0.43998  0.56002  0.63307  1
 O  O5  1  0.55170  0.44830  0.35878  1
 O  O6  1  0.61995  0.38005  0.97805  1
 O  O7  1  0.76846  0.23154  0.68862  1
 O  O8  1  0.87212  0.12788  0.28884  1
 V  V1  1  0.40114  0.59886  0.28356  1
 V  V2  1  0.60191  0.39809  0.72324  1
 V  V3  1  0.30247  0.69753  0.71567  1
