CIF file written using JARVIS-Tools package.
data_Li2CrCuO4
_symmetry_space_group_name_H-M  'P2/m'
_cell_length_a       5.59757
_cell_length_b       2.82366
_cell_length_c       5.24073
_cell_angle_alpha    90
_cell_angle_beta     118.451
_cell_angle_gamma    90

_symmetry_Int_Tables_number  10
_chemical_formula_structural  Li2CrCuO4
_chemical_formula_sum  Li2CrCuO4
_cell_volume  72.82915722355382
_cell_formula_units_Z  1
loop_
  _symmetry_equiv_pos_site_id
 _symmetry_equiv_pos_as_xyz
 1  'x, y, z'
loop_
 _atom_site_type_symbol
 _atom_site_label
 _atom_site_symmetry_multiplicity
 _atom_site_fract_x
 _atom_site_fract_y
 _atom_site_fract_z
 _atom_site_fract_occupancy
 Cr  Cr1  1  -0.00000  0.50000  0.50000  1
 Cu  Cu1  1  0.50000  0.00000  0.50000  1
 Li  Li1  1  0.00000  0.00000  0.00000  1
 Li  Li2  1  0.50000  0.50000  0.00000  1
 O  O1  1  0.78584  0.00000  0.23809  1
 O  O2  1  0.23089  0.50000  0.31666  1
 O  O3  1  0.21416  0.00000  0.76191  1
 O  O4  1  0.76911  0.50000  0.68334  1
