CIF file written using JARVIS-Tools package.
data_LiNbNiO4
_symmetry_space_group_name_H-M  'Imma'
_cell_length_a       5.98099
_cell_length_b       6.03606
_cell_length_c       6.03606
_cell_angle_alpha    61.8118
_cell_angle_beta     60.3013
_cell_angle_gamma    60.3013

_symmetry_Int_Tables_number  74
_chemical_formula_structural  LiNbNiO4
_chemical_formula_sum  Li2Nb2Ni2O8
_cell_volume  156.811989324796
_cell_formula_units_Z  2
loop_
  _symmetry_equiv_pos_site_id
 _symmetry_equiv_pos_as_xyz
 1  'x, y, z'
loop_
 _atom_site_type_symbol
 _atom_site_label
 _atom_site_symmetry_multiplicity
 _atom_site_fract_x
 _atom_site_fract_y
 _atom_site_fract_z
 _atom_site_fract_occupancy
 Li  Li1  1  0.13555  0.11445  0.11445  1
 Li  Li2  1  0.86445  0.88555  0.88555  1
 Nb  Nb1  1  0.50000  0.00000  0.50000  1
 Nb  Nb2  1  0.50000  0.50000  -0.00000  1
 Ni  Ni1  1  0.00000  0.50000  0.50000  1
 Ni  Ni2  1  0.50000  0.50000  0.50000  1
 O  O1  1  0.27779  0.24682  0.24682  1
 O  O2  1  0.26484  0.25780  0.71253  1
 O  O3  1  0.26484  0.71253  0.25780  1
 O  O4  1  0.72857  0.24682  0.24682  1
 O  O5  1  0.27143  0.75318  0.75318  1
 O  O6  1  0.73516  0.74220  0.28747  1
 O  O7  1  0.73516  0.28747  0.74220  1
 O  O8  1  0.72221  0.75318  0.75318  1
