CIF file written using JARVIS-Tools package.
data_LiMnF3
_symmetry_space_group_name_H-M  'Pnma'
_cell_length_a       3.52413
_cell_length_b       9.93
_cell_length_c       7.21987
_cell_angle_alpha    90
_cell_angle_beta     90.0029
_cell_angle_gamma    90

_symmetry_Int_Tables_number  62
_chemical_formula_structural  LiMnF3
_chemical_formula_sum  Li4Mn4F2
_cell_volume  252.6566850720277
_cell_formula_units_Z  4
loop_
  _symmetry_equiv_pos_site_id
 _symmetry_equiv_pos_as_xyz
 1  'x, y, z'
loop_
 _atom_site_type_symbol
 _atom_site_label
 _atom_site_symmetry_multiplicity
 _atom_site_fract_x
 _atom_site_fract_y
 _atom_site_fract_z
 _atom_site_fract_occupancy
 F  F1  1  0.74982  0.37062  0.39096  1
 F  F2  1  0.25002  0.08739  0.58743  1
 F  F3  1  0.74998  0.58739  0.91257  1
 F  F4  1  0.24951  0.34825  0.72984  1
 F  F5  1  0.25018  0.62938  0.60904  1
 F  F6  1  0.25002  0.41261  0.08743  1
 F  F7  1  0.25018  0.87062  0.10904  1
 F  F8  1  0.74982  0.12938  0.89096  1
 F  F9  1  0.75049  0.84825  0.77016  1
 F  F10  1  0.74998  0.91261  0.41257  1
 F  F11  1  0.75049  0.65175  0.27016  1
 F  F12  1  0.24951  0.15175  0.22984  1
 Li  Li1  1  0.75000  0.47962  0.16497  1
 Li  Li2  1  0.75000  0.02038  0.66497  1
 Li  Li3  1  0.25000  0.97962  0.33503  1
 Li  Li4  1  0.25000  0.52038  0.83503  1
 Mn  Mn1  1  0.75015  0.77872  0.03827  1
 Mn  Mn2  1  0.75015  0.72128  0.53827  1
 Mn  Mn3  1  0.24985  0.27872  0.46173  1
 Mn  Mn4  1  0.24985  0.22128  0.96173  1
