CIF file written using JARVIS-Tools package.
data_ScCu2O4
_symmetry_space_group_name_H-M  'I4_1/amd'
_cell_length_a       5.61368
_cell_length_b       6.7175
_cell_length_c       5.61368
_cell_angle_alpha    65.3017
_cell_angle_beta     90
_cell_angle_gamma    114.698

_symmetry_Int_Tables_number  141
_chemical_formula_structural  ScCu2O4
_chemical_formula_sum  Sc2Cu4O8
_cell_volume  170.7780828911185
_cell_formula_units_Z  2
loop_
  _symmetry_equiv_pos_site_id
 _symmetry_equiv_pos_as_xyz
 1  'x, y, z'
loop_
 _atom_site_type_symbol
 _atom_site_label
 _atom_site_symmetry_multiplicity
 _atom_site_fract_x
 _atom_site_fract_y
 _atom_site_fract_z
 _atom_site_fract_occupancy
 Cu  Cu1  1  0.87500  0.25000  0.37500  1
 Cu  Cu2  1  0.37500  0.25000  0.37500  1
 Cu  Cu3  1  0.37500  0.75000  0.37500  1
 Cu  Cu4  1  0.37500  0.75000  0.87500  1
 O  O1  1  0.12007  0.24014  0.15245  1
 O  O2  1  0.62993  0.25986  0.14259  1
 O  O3  1  0.15245  0.75986  0.12007  1
 O  O4  1  0.60741  0.75986  0.12007  1
 O  O5  1  0.12007  0.24014  0.60741  1
 O  O6  1  0.62993  0.25986  0.59755  1
 O  O7  1  0.59755  0.74014  0.62993  1
 O  O8  1  0.14259  0.74014  0.62993  1
 Sc  Sc1  1  0.00000  0.00000  0.00000  1
 Sc  Sc2  1  0.75000  0.50000  0.75000  1
