CIF file written using JARVIS-Tools package.
data_Li8FeO6
_symmetry_space_group_name_H-M  'P-1'
_cell_length_a       5.2483
_cell_length_b       5.28913
_cell_length_c       5.77182
_cell_angle_alpha    62.3849
_cell_angle_beta     66.6931
_cell_angle_gamma    64.5436

_symmetry_Int_Tables_number  2
_chemical_formula_structural  Li8FeO6
_chemical_formula_sum  Li8FeO6
_cell_volume  124.26109286282735
_cell_formula_units_Z  1
loop_
  _symmetry_equiv_pos_site_id
 _symmetry_equiv_pos_as_xyz
 1  'x, y, z'
loop_
 _atom_site_type_symbol
 _atom_site_label
 _atom_site_symmetry_multiplicity
 _atom_site_fract_x
 _atom_site_fract_y
 _atom_site_fract_z
 _atom_site_fract_occupancy
 Fe  Fe1  1  0.00000  0.00000  0.00000  1
 Li  Li1  1  0.22777  0.51527  0.35795  1
 Li  Li2  1  0.10321  0.75746  0.66225  1
 Li  Li3  1  0.48383  0.10068  0.64303  1
 Li  Li4  1  0.37555  0.33308  0.97770  1
 Li  Li5  1  0.62445  0.66692  0.02230  1
 Li  Li6  1  0.51617  0.89932  0.35697  1
 Li  Li7  1  0.89679  0.24254  0.33775  1
 Li  Li8  1  0.77223  0.48473  0.64205  1
 O  O1  1  0.10421  0.35483  0.76970  1
 O  O2  1  0.21457  0.92357  0.23476  1
 O  O3  1  0.58746  0.25716  0.24497  1
 O  O4  1  0.41254  0.74284  0.75503  1
 O  O5  1  0.78543  0.07643  0.76524  1
 O  O6  1  0.89579  0.64517  0.23030  1
