CIF file written using JARVIS-Tools package.
data_Tl2SnAs2S6
_symmetry_space_group_name_H-M  'P-3'
_cell_length_a       6.7541
_cell_length_b       6.7541
_cell_length_c       7.2413
_cell_angle_alpha    90
_cell_angle_beta     90
_cell_angle_gamma    120

_symmetry_Int_Tables_number  147
_chemical_formula_structural  Tl2SnAs2S6
_chemical_formula_sum  Tl2SnAs2S6
_cell_volume  286.07577886270707
_cell_formula_units_Z  1
loop_
  _symmetry_equiv_pos_site_id
 _symmetry_equiv_pos_as_xyz
 1  'x, y, z'
loop_
 _atom_site_type_symbol
 _atom_site_label
 _atom_site_symmetry_multiplicity
 _atom_site_fract_x
 _atom_site_fract_y
 _atom_site_fract_z
 _atom_site_fract_occupancy
 As  As1  1  0.33333  0.66667  0.92854  1
 As  As2  1  0.66667  0.33333  0.07146  1
 S  S1  1  0.66452  0.77659  0.76902  1
 S  S2  1  0.22341  0.88793  0.76902  1
 S  S3  1  0.11207  0.33548  0.76902  1
 S  S4  1  0.33548  0.22341  0.23098  1
 S  S5  1  0.77659  0.11207  0.23098  1
 S  S6  1  0.88793  0.66452  0.23098  1
 Sn  Sn1  1  0.00000  0.00000  0.00000  1
 Tl  Tl1  1  0.66667  0.33333  0.61191  1
 Tl  Tl2  1  0.33333  0.66667  0.38809  1
