CIF file written using JARVIS-Tools package.
data_Li5TaO5
_symmetry_space_group_name_H-M  'C2/m'
_cell_length_a       5.26839
_cell_length_b       5.26839
_cell_length_c       5.81633
_cell_angle_alpha    72.7962
_cell_angle_beta     107.204
_cell_angle_gamma    135.245

_symmetry_Int_Tables_number  12
_chemical_formula_structural  Li5TaO5
_chemical_formula_sum  Li5TaO5
_cell_volume  107.69290625496302
_cell_formula_units_Z  1
loop_
  _symmetry_equiv_pos_site_id
 _symmetry_equiv_pos_as_xyz
 1  'x, y, z'
loop_
 _atom_site_type_symbol
 _atom_site_label
 _atom_site_symmetry_multiplicity
 _atom_site_fract_x
 _atom_site_fract_y
 _atom_site_fract_z
 _atom_site_fract_occupancy
 Li  Li1  1  0.28550  0.71450  0.65266  1
 Li  Li2  1  0.30796  0.69204  0.14010  1
 Li  Li3  1  -0.00000  0.00000  0.50000  1
 Li  Li4  1  0.69204  0.30796  0.85990  1
 Li  Li5  1  0.71450  0.28550  0.34734  1
 O  O1  1  0.14656  0.85344  0.82558  1
 O  O2  1  0.15761  0.84239  0.31897  1
 O  O3  1  0.50000  0.50000  0.00000  1
 O  O4  1  0.84239  0.15761  0.68103  1
 O  O5  1  0.85344  0.14656  0.17442  1
 Ta  Ta1  1  0.00000  0.00000  0.00000  1
