CIF file written using JARVIS-Tools package.
data_NaCaTaTiO6
_symmetry_space_group_name_H-M  'Pc'
_cell_length_a       5.43148
_cell_length_b       5.53591
_cell_length_c       9.45052
_cell_angle_alpha    90
_cell_angle_beta     124.985
_cell_angle_gamma    90

_symmetry_Int_Tables_number  7
_chemical_formula_structural  NaCaTaTiO6
_chemical_formula_sum  Na2Ca2Ta2Ti2O2
_cell_volume  232.81297870570685
_cell_formula_units_Z  2
loop_
  _symmetry_equiv_pos_site_id
 _symmetry_equiv_pos_as_xyz
 1  'x, y, z'
loop_
 _atom_site_type_symbol
 _atom_site_label
 _atom_site_symmetry_multiplicity
 _atom_site_fract_x
 _atom_site_fract_y
 _atom_site_fract_z
 _atom_site_fract_occupancy
 Ca  Ca1  1  0.23754  0.79918  0.74929  1
 Ca  Ca2  1  0.23754  0.20082  0.24929  1
 Na  Na1  1  0.75275  0.27568  0.74985  1
 Na  Na2  1  0.75275  0.72432  0.24985  1
 O  O1  1  0.32276  0.76893  0.24834  1
 O  O2  1  0.25422  0.45162  0.45685  1
 O  O3  1  0.17695  0.03711  0.96280  1
 O  O4  1  0.84287  0.54216  0.54303  1
 O  O5  1  0.75566  0.03599  0.53783  1
 O  O6  1  0.67070  0.26878  0.25160  1
 O  O7  1  0.32276  0.23107  0.74834  1
 O  O8  1  0.17695  0.96289  0.46280  1
 O  O9  1  0.25422  0.54838  0.95685  1
 O  O10  1  0.84287  0.45784  0.04303  1
 O  O11  1  0.75566  0.96401  0.03783  1
 O  O12  1  0.67070  0.73122  0.75160  1
 Ta  Ta1  1  0.49322  0.74162  0.49895  1
 Ta  Ta2  1  0.49322  0.25838  -0.00105  1
 Ti  Ti1  1  0.99333  0.74591  0.00145  1
 Ti  Ti2  1  0.99333  0.25409  0.50145  1
