CIF file written using JARVIS-Tools package.
data_FeSbAs
_symmetry_space_group_name_H-M  'Pmn2_1'
_cell_length_a       3.08768
_cell_length_b       5.54849
_cell_length_c       6.28043
_cell_angle_alpha    90
_cell_angle_beta     90
_cell_angle_gamma    90

_symmetry_Int_Tables_number  31
_chemical_formula_structural  FeSbAs
_chemical_formula_sum  Fe2Sb2As2
_cell_volume  107.59596616994565
_cell_formula_units_Z  2
loop_
  _symmetry_equiv_pos_site_id
 _symmetry_equiv_pos_as_xyz
 1  'x, y, z'
loop_
 _atom_site_type_symbol
 _atom_site_label
 _atom_site_symmetry_multiplicity
 _atom_site_fract_x
 _atom_site_fract_y
 _atom_site_fract_z
 _atom_site_fract_occupancy
 As  As1  1  0.00000  0.44306  0.34260  1
 As  As2  1  0.50000  0.55694  0.84260  1
 Fe  Fe1  1  0.00000  0.27429  0.69224  1
 Fe  Fe2  1  0.50000  0.72571  0.19224  1
 Sb  Sb1  1  0.00000  0.06869  0.05756  1
 Sb  Sb2  1  0.50000  0.93131  0.55756  1
