CIF file written using JARVIS-Tools package.
data_Al2PbSe4
_symmetry_space_group_name_H-M  'Cccm'
_cell_length_a       6.28536
_cell_length_b       6.28536
_cell_length_c       10.9372
_cell_angle_alpha    90
_cell_angle_beta     90
_cell_angle_gamma    120.227

_symmetry_Int_Tables_number  66
_chemical_formula_structural  Al2PbSe4
_chemical_formula_sum  Al4Pb2Se8
_cell_volume  373.33677920241155
_cell_formula_units_Z  2
loop_
  _symmetry_equiv_pos_site_id
 _symmetry_equiv_pos_as_xyz
 1  'x, y, z'
loop_
 _atom_site_type_symbol
 _atom_site_label
 _atom_site_symmetry_multiplicity
 _atom_site_fract_x
 _atom_site_fract_y
 _atom_site_fract_z
 _atom_site_fract_occupancy
 Al  Al1  1  0.23816  0.75914  0.00000  1
 Al  Al2  1  0.24086  0.76184  0.50000  1
 Al  Al3  1  0.75914  0.23816  0.50000  1
 Al  Al4  1  0.76184  0.24086  0.00000  1
 Pb  Pb1  1  0.50000  0.50000  0.25000  1
 Pb  Pb2  1  0.50000  0.50000  0.75000  1
 Se  Se1  1  0.00000  0.50000  0.16912  1
 Se  Se2  1  0.18397  0.34695  0.50000  1
 Se  Se3  1  0.50000  0.00000  0.33088  1
 Se  Se4  1  0.34695  0.18397  0.00000  1
 Se  Se5  1  0.65305  0.81603  0.00000  1
 Se  Se6  1  0.50000  0.00000  0.66912  1
 Se  Se7  1  0.81603  0.65305  0.50000  1
 Se  Se8  1  0.00000  0.50000  0.83088  1
