CIF file written using JARVIS-Tools package.
data_TeO3
_symmetry_space_group_name_H-M  'Pnma'
_cell_length_a       5.0514
_cell_length_b       5.25781
_cell_length_c       7.33188
_cell_angle_alpha    90.0003
_cell_angle_beta     90
_cell_angle_gamma    90.0001

_symmetry_Int_Tables_number  62
_chemical_formula_structural  TeO3
_chemical_formula_sum  Te4O2
_cell_volume  194.72963533398914
_cell_formula_units_Z  4
loop_
  _symmetry_equiv_pos_site_id
 _symmetry_equiv_pos_as_xyz
 1  'x, y, z'
loop_
 _atom_site_type_symbol
 _atom_site_label
 _atom_site_symmetry_multiplicity
 _atom_site_fract_x
 _atom_site_fract_y
 _atom_site_fract_z
 _atom_site_fract_occupancy
 O  O1  1  0.13085  0.47198  0.75000  1
 O  O2  1  0.63085  0.02802  0.25001  1
 O  O3  1  0.36915  0.97198  0.75000  1
 O  O4  1  0.86915  0.52802  0.25000  1
 O  O5  1  0.31953  0.68722  0.43554  1
 O  O6  1  0.81955  0.81283  0.56445  1
 O  O7  1  0.18046  0.18716  0.06445  1
 O  O8  1  0.68047  0.31278  0.93555  1
 O  O9  1  0.31958  0.68715  0.06444  1
 O  O10  1  0.81957  0.81280  0.93556  1
 O  O11  1  0.68041  0.31285  0.56444  1
 O  O12  1  0.18043  0.18721  0.43556  1
 Te  Te1  1  0.50002  -0.00002  0.00000  1
 Te  Te2  1  0.00001  0.49998  0.00000  1
 Te  Te3  1  -0.00001  0.50002  0.50000  1
 Te  Te4  1  0.49999  0.00002  0.50000  1
