CIF file written using JARVIS-Tools package.
data_InSn2Br5
_symmetry_space_group_name_H-M  'I4/mcm'
_cell_length_a       8.34314
_cell_length_b       8.34314
_cell_length_c       9.23797
_cell_angle_alpha    116.844
_cell_angle_beta     116.844
_cell_angle_gamma    90

_symmetry_Int_Tables_number  140
_chemical_formula_structural  InSn2Br5
_chemical_formula_sum  In2Sn4Br0
_cell_volume  494.8343488443189
_cell_formula_units_Z  2
loop_
  _symmetry_equiv_pos_site_id
 _symmetry_equiv_pos_as_xyz
 1  'x, y, z'
loop_
 _atom_site_type_symbol
 _atom_site_label
 _atom_site_symmetry_multiplicity
 _atom_site_fract_x
 _atom_site_fract_y
 _atom_site_fract_z
 _atom_site_fract_occupancy
 Br  Br1  1  0.20270  0.70270  0.72082  1
 Br  Br2  1  0.48187  0.98187  0.27918  1
 Br  Br3  1  0.79730  0.29730  0.27918  1
 Br  Br4  1  0.98187  0.79730  0.27918  1
 Br  Br5  1  0.29730  0.48187  0.27918  1
 Br  Br6  1  0.01813  0.20270  0.72082  1
 Br  Br7  1  0.00000  0.00000  0.00000  1
 Br  Br8  1  0.50000  0.50000  0.00000  1
 Br  Br9  1  0.51813  0.01813  0.72082  1
 Br  Br10  1  0.70270  0.51813  0.72082  1
 In  In1  1  0.25000  0.25000  0.50000  1
 In  In2  1  0.75000  0.75000  0.50000  1
 Sn  Sn1  1  0.32925  0.17075  -0.00000  1
 Sn  Sn2  1  0.17075  0.67075  0.00000  1
 Sn  Sn3  1  0.67075  0.82925  0.00000  1
 Sn  Sn4  1  0.82925  0.32925  -0.00000  1
