CIF file written using JARVIS-Tools package.
data_LiMnOF2
_symmetry_space_group_name_H-M  'C2/c'
_cell_length_a       6.48759
_cell_length_b       6.48759
_cell_length_c       5.25436
_cell_angle_alpha    83.6443
_cell_angle_beta     96.3558
_cell_angle_gamma    94.7786

_symmetry_Int_Tables_number  15
_chemical_formula_structural  LiMnOF2
_chemical_formula_sum  Li4Mn4O4F8
_cell_volume  217.87364467582583
_cell_formula_units_Z  4
loop_
  _symmetry_equiv_pos_site_id
 _symmetry_equiv_pos_as_xyz
 1  'x, y, z'
loop_
 _atom_site_type_symbol
 _atom_site_label
 _atom_site_symmetry_multiplicity
 _atom_site_fract_x
 _atom_site_fract_y
 _atom_site_fract_z
 _atom_site_fract_occupancy
 F  F1  1  0.87160  0.62312  0.13282  1
 F  F2  1  0.62312  0.87160  0.36718  1
 F  F3  1  0.53678  0.29078  0.14420  1
 F  F4  1  0.46322  0.70922  0.85580  1
 F  F5  1  0.37688  0.12840  0.63282  1
 F  F6  1  0.29078  0.53678  0.35580  1
 F  F7  1  0.12840  0.37688  0.86718  1
 F  F8  1  0.70922  0.46322  0.64420  1
 Li  Li1  1  0.21847  0.60942  0.66581  1
 Li  Li2  1  0.78153  0.39058  0.33419  1
 Li  Li3  1  0.60942  0.21847  0.83419  1
 Li  Li4  1  0.39058  0.78153  0.16581  1
 Mn  Mn1  1  0.91059  0.91059  0.25000  1
 Mn  Mn2  1  0.74046  0.74046  0.75000  1
 Mn  Mn3  1  0.25954  0.25954  0.25000  1
 Mn  Mn4  1  0.08941  0.08941  0.75000  1
 O  O1  1  0.19336  0.00139  0.09887  1
 O  O2  1  -0.00139  0.80664  0.59887  1
 O  O3  1  0.00139  0.19336  0.40113  1
 O  O4  1  0.80664  -0.00139  0.90113  1
