CIF file written using JARVIS-Tools package.
data_Al2Si2H4O9
_symmetry_space_group_name_H-M  'P1'
_cell_length_a       5.2138
_cell_length_b       5.19865
_cell_length_c       7.38382
_cell_angle_alpha    84.1131
_cell_angle_beta     99.1587
_cell_angle_gamma    59.898

_symmetry_Int_Tables_number  1
_chemical_formula_structural  Al2Si2H4O9
_chemical_formula_sum  Al2Si2H4O9
_cell_volume  166.9942065805304
_cell_formula_units_Z  1
loop_
  _symmetry_equiv_pos_site_id
 _symmetry_equiv_pos_as_xyz
 1  'x, y, z'
loop_
 _atom_site_type_symbol
 _atom_site_label
 _atom_site_symmetry_multiplicity
 _atom_site_fract_x
 _atom_site_fract_y
 _atom_site_fract_z
 _atom_site_fract_occupancy
 Al  Al1  1  0.79728  0.19459  0.48070  1
 Al  Al2  1  0.12618  0.53697  0.47828  1
 H  H1  1  0.20990  0.92001  0.32640  1
 H  H2  1  0.23774  0.10812  0.73953  1
 H  H3  1  0.55317  0.45653  0.73792  1
 H  H4  1  0.86225  0.76956  0.73407  1
 O  O1  1  0.51370  0.43580  0.60826  1
 O  O2  1  0.78544  0.54192  0.31753  1
 O  O3  1  0.50367  0.49558  0.99497  1
 O  O4  1  0.40483  0.30320  0.31604  1
 O  O5  1  0.12995  0.20614  0.60860  1
 O  O6  1  0.02222  0.91994  0.32618  1
 O  O7  1  0.43160  0.02470  0.01886  1
 O  O8  1  0.96418  0.57056  0.99525  1
 O  O9  1  0.89717  0.81888  0.61310  1
 Si  Si1  1  0.67600  0.65770  0.09162  1
 Si  Si2  1  0.33342  0.34309  0.08978  1
