CIF file written using JARVIS-Tools package.
data_NiH12Cl2O6
_symmetry_space_group_name_H-M  'C2/m'
_cell_length_a       6.19893
_cell_length_b       6.19892
_cell_length_c       6.48479
_cell_angle_alpha    63.0277
_cell_angle_beta     63.0276
_cell_angle_gamma    68.2899

_symmetry_Int_Tables_number  12
_chemical_formula_structural  NiH12Cl2O6
_chemical_formula_sum  NiH2Cl2O6
_cell_volume  193.6513420120342
_cell_formula_units_Z  1
loop_
  _symmetry_equiv_pos_site_id
 _symmetry_equiv_pos_as_xyz
 1  'x, y, z'
loop_
 _atom_site_type_symbol
 _atom_site_label
 _atom_site_symmetry_multiplicity
 _atom_site_fract_x
 _atom_site_fract_y
 _atom_site_fract_z
 _atom_site_fract_occupancy
 Cl  Cl1  1  0.72380  0.72380  0.17315  1
 Cl  Cl2  1  0.27620  0.27620  0.82686  1
 H  H1  1  0.26812  0.26812  0.15802  1
 H  H2  1  0.19915  0.58211  0.28054  1
 H  H3  1  0.41789  0.80085  0.71946  1
 H  H4  1  0.80085  0.41789  0.71946  1
 H  H5  1  0.67474  0.21009  0.76714  1
 H  H6  1  0.78991  0.32526  0.23286  1
 H  H7  1  0.73188  0.73188  0.84197  1
 H  H8  1  0.21009  0.67474  0.76714  1
 H  H9  1  0.18109  0.18109  0.45275  1
 H  H10  1  0.81891  0.81892  0.54725  1
 H  H11  1  0.32526  0.78991  0.23285  1
 H  H12  1  0.58211  0.19915  0.28054  1
 Ni  Ni1  1  0.00000  0.00000  0.00000  1
 O  O1  1  0.71562  0.71562  0.70404  1
 O  O2  1  0.28438  0.28438  0.29596  1
 O  O3  1  0.83406  0.23909  0.73922  1
 O  O4  1  0.76091  0.16594  0.26078  1
 O  O5  1  0.23909  0.83406  0.73922  1
 O  O6  1  0.16594  0.76091  0.26078  1
