CIF file written using JARVIS-Tools package.
data_VCdO3
_symmetry_space_group_name_H-M  'Pnma'
_cell_length_a       5.3072
_cell_length_b       5.37947
_cell_length_c       7.58373
_cell_angle_alpha    90
_cell_angle_beta     90
_cell_angle_gamma    90

_symmetry_Int_Tables_number  62
_chemical_formula_structural  VCdO3
_chemical_formula_sum  V4Cd4O2
_cell_volume  216.5152393425962
_cell_formula_units_Z  4
loop_
  _symmetry_equiv_pos_site_id
 _symmetry_equiv_pos_as_xyz
 1  'x, y, z'
loop_
 _atom_site_type_symbol
 _atom_site_label
 _atom_site_symmetry_multiplicity
 _atom_site_fract_x
 _atom_site_fract_y
 _atom_site_fract_z
 _atom_site_fract_occupancy
 Cd  Cd1  1  0.00799  0.96470  0.75000  1
 Cd  Cd2  1  0.50799  0.53530  0.25000  1
 Cd  Cd3  1  0.49201  0.46470  0.75000  1
 Cd  Cd4  1  0.99201  0.03530  0.25000  1
 O  O1  1  0.08695  0.47840  0.25000  1
 O  O2  1  0.70489  0.29115  0.45549  1
 O  O3  1  0.91305  0.52160  0.75000  1
 O  O4  1  0.79511  0.79115  0.04451  1
 O  O5  1  0.29511  0.70885  0.95549  1
 O  O6  1  0.20489  0.20885  0.54451  1
 O  O7  1  0.79511  0.79115  0.45549  1
 O  O8  1  0.41305  0.97840  0.25000  1
 O  O9  1  0.70489  0.29115  0.04451  1
 O  O10  1  0.29511  0.70885  0.54451  1
 O  O11  1  0.58695  0.02160  0.75000  1
 O  O12  1  0.20489  0.20885  0.95549  1
 V  V1  1  0.50000  0.00000  0.00000  1
 V  V2  1  0.00000  0.50000  0.00000  1
 V  V3  1  0.00000  0.50000  0.50000  1
 V  V4  1  0.50000  0.00000  0.50000  1
