CIF file written using JARVIS-Tools package.
data_Th2Zn
_symmetry_space_group_name_H-M  'I4/mcm'
_cell_length_a       5.64206
_cell_length_b       6.08666
_cell_length_c       6.08666
_cell_angle_alpha    77.5955
_cell_angle_beta     62.3883
_cell_angle_gamma    62.3883

_symmetry_Int_Tables_number  140
_chemical_formula_structural  Th2Zn
_chemical_formula_sum  Th4Zn2
_cell_volume  164.12293542778403
_cell_formula_units_Z  2
loop_
  _symmetry_equiv_pos_site_id
 _symmetry_equiv_pos_as_xyz
 1  'x, y, z'
loop_
 _atom_site_type_symbol
 _atom_site_label
 _atom_site_symmetry_multiplicity
 _atom_site_fract_x
 _atom_site_fract_y
 _atom_site_fract_z
 _atom_site_fract_occupancy
 Th  Th1  1  0.65899  0.18203  0.50000  1
 Th  Th2  1  0.84101  0.50000  0.81797  1
 Th  Th3  1  0.34101  0.81797  0.50000  1
 Th  Th4  1  0.15899  0.50000  0.18203  1
 Zn  Zn1  1  0.75000  0.00000  0.00000  1
 Zn  Zn2  1  0.25000  0.00000  -0.00000  1
