CIF file written using JARVIS-Tools package.
data_Tb2Pt
_symmetry_space_group_name_H-M  'Pnma'
_cell_length_a       4.76454
_cell_length_b       7.14312
_cell_length_c       8.80507
_cell_angle_alpha    90
_cell_angle_beta     90
_cell_angle_gamma    90

_symmetry_Int_Tables_number  62
_chemical_formula_structural  Tb2Pt
_chemical_formula_sum  Tb8Pt4
_cell_volume  299.6685564708807
_cell_formula_units_Z  4
loop_
  _symmetry_equiv_pos_site_id
 _symmetry_equiv_pos_as_xyz
 1  'x, y, z'
loop_
 _atom_site_type_symbol
 _atom_site_label
 _atom_site_symmetry_multiplicity
 _atom_site_fract_x
 _atom_site_fract_y
 _atom_site_fract_z
 _atom_site_fract_occupancy
 Pt  Pt1  1  0.75000  0.74121  0.09196  1
 Pt  Pt2  1  0.25000  0.25879  0.90804  1
 Pt  Pt3  1  0.75000  0.24121  0.40804  1
 Pt  Pt4  1  0.25000  0.75879  0.59196  1
 Tb  Tb1  1  0.75000  0.14478  0.08259  1
 Tb  Tb2  1  0.25000  0.85522  0.91741  1
 Tb  Tb3  1  0.75000  0.64478  0.41741  1
 Tb  Tb4  1  0.25000  0.35522  0.58259  1
 Tb  Tb5  1  0.75000  0.00836  0.66852  1
 Tb  Tb6  1  0.25000  0.99164  0.33148  1
 Tb  Tb7  1  0.75000  0.50836  0.83148  1
 Tb  Tb8  1  0.25000  0.49164  0.16852  1
