CIF file written using JARVIS-Tools package.
data_Na2SO4
_symmetry_space_group_name_H-M  'Cmcm'
_cell_length_a       5.26731
_cell_length_b       5.26731
_cell_length_c       6.95257
_cell_angle_alpha    90
_cell_angle_beta     90
_cell_angle_gamma    115.505

_symmetry_Int_Tables_number  63
_chemical_formula_structural  Na2SO4
_chemical_formula_sum  Na4S2O8
_cell_volume  174.0967259321179
_cell_formula_units_Z  2
loop_
  _symmetry_equiv_pos_site_id
 _symmetry_equiv_pos_as_xyz
 1  'x, y, z'
loop_
 _atom_site_type_symbol
 _atom_site_label
 _atom_site_symmetry_multiplicity
 _atom_site_fract_x
 _atom_site_fract_y
 _atom_site_fract_z
 _atom_site_fract_occupancy
 Na  Na1  1  0.18966  0.81034  0.75000  1
 Na  Na2  1  0.81034  0.18966  0.25000  1
 Na  Na3  1  0.50000  0.50000  0.50000  1
 Na  Na4  1  0.50000  0.50000  0.00000  1
 O  O1  1  0.24519  0.75481  0.07671  1
 O  O2  1  0.75481  0.24519  0.57671  1
 O  O3  1  0.75481  0.24519  0.92329  1
 O  O4  1  0.24519  0.75481  0.42329  1
 O  O5  1  0.16472  0.26690  0.75000  1
 O  O6  1  0.83528  0.73310  0.25000  1
 O  O7  1  0.73310  0.83528  0.75000  1
 O  O8  1  0.26690  0.16472  0.25000  1
 S  S1  1  0.85051  0.14949  0.75000  1
 S  S2  1  0.14949  0.85051  0.25000  1
