CIF file written using JARVIS-Tools package.
data_VO2F
_symmetry_space_group_name_H-M  'P1'
_cell_length_a       5.08567
_cell_length_b       5.09625
_cell_length_c       12.9249
_cell_angle_alpha    88.8952
_cell_angle_beta     89.2812
_cell_angle_gamma    60.705

_symmetry_Int_Tables_number  1
_chemical_formula_structural  VO2F
_chemical_formula_sum  V6O2F6
_cell_volume  292.0879160346433
_cell_formula_units_Z  6
loop_
  _symmetry_equiv_pos_site_id
 _symmetry_equiv_pos_as_xyz
 1  'x, y, z'
loop_
 _atom_site_type_symbol
 _atom_site_label
 _atom_site_symmetry_multiplicity
 _atom_site_fract_x
 _atom_site_fract_y
 _atom_site_fract_z
 _atom_site_fract_occupancy
 F  F1  1  0.75001  0.34460  0.08385  1
 F  F2  1  0.33544  0.72967  0.58361  1
 F  F3  1  0.98570  0.58231  0.75148  1
 F  F4  1  0.08378  0.66474  0.41623  1
 F  F5  1  0.60295  0.00806  0.24929  1
 F  F6  1  0.07102  0.25516  0.91613  1
 O  O1  1  0.42619  0.59461  0.24787  1
 O  O2  1  0.74775  0.90893  0.58474  1
 O  O3  1  0.24941  0.65977  0.91411  1
 O  O4  1  0.93237  0.75451  0.08484  1
 O  O5  1  0.40888  0.98308  0.75113  1
 O  O6  1  0.57697  0.40191  0.74975  1
 O  O7  1  0.34991  0.92408  0.07916  1
 O  O8  1  0.01407  0.41386  0.25269  1
 O  O9  1  0.66614  0.07859  0.91909  1
 O  O10  1  0.91811  0.32773  0.58597  1
 O  O11  1  0.26656  0.08017  0.41856  1
 O  O12  1  0.67154  0.26085  0.41902  1
 V  V1  1  0.39397  0.29493  0.83338  1
 V  V2  1  0.64486  0.71353  0.66620  1
 V  V3  1  0.29407  0.32876  0.33373  1
 V  V4  1  0.61992  0.68456  0.16297  1
 V  V5  1  0.03383  0.93368  0.99631  1
 V  V6  1  0.95657  0.07190  0.49988  1
