CIF file written using JARVIS-Tools package.
data_Li3BiO4
_symmetry_space_group_name_H-M  'P2/c'
_cell_length_a       5.20785
_cell_length_b       6.35937
_cell_length_c       5.32648
_cell_angle_alpha    90
_cell_angle_beta     107.253
_cell_angle_gamma    90

_symmetry_Int_Tables_number  13
_chemical_formula_structural  Li3BiO4
_chemical_formula_sum  Li6Bi2O8
_cell_volume  168.46864806838798
_cell_formula_units_Z  2
loop_
  _symmetry_equiv_pos_site_id
 _symmetry_equiv_pos_as_xyz
 1  'x, y, z'
loop_
 _atom_site_type_symbol
 _atom_site_label
 _atom_site_symmetry_multiplicity
 _atom_site_fract_x
 _atom_site_fract_y
 _atom_site_fract_z
 _atom_site_fract_occupancy
 Bi  Bi1  1  -0.00000  0.15071  0.75000  1
 Bi  Bi2  1  -0.00000  0.84929  0.25000  1
 Li  Li1  1  -0.00000  0.61240  0.75000  1
 Li  Li2  1  -0.00000  0.38760  0.25000  1
 Li  Li3  1  0.50000  0.84246  0.75000  1
 Li  Li4  1  0.50000  0.43323  0.75000  1
 Li  Li5  1  0.50000  0.56677  0.25000  1
 Li  Li6  1  0.50000  0.15754  0.25000  1
 O  O1  1  0.25267  0.37554  0.98585  1
 O  O2  1  0.23891  0.10814  0.48250  1
 O  O3  1  0.25267  0.62446  0.48585  1
 O  O4  1  0.23891  0.89186  0.98250  1
 O  O5  1  0.74733  0.37554  0.51415  1
 O  O6  1  0.76109  0.89186  0.51750  1
 O  O7  1  0.74733  0.62446  0.01415  1
 O  O8  1  0.76109  0.10814  0.01750  1
