CIF file written using JARVIS-Tools package.
data_DyCuPb
_symmetry_space_group_name_H-M  'P6_3mc'
_cell_length_a       4.60103
_cell_length_b       4.60103
_cell_length_c       7.36825
_cell_angle_alpha    90
_cell_angle_beta     90
_cell_angle_gamma    120

_symmetry_Int_Tables_number  186
_chemical_formula_structural  DyCuPb
_chemical_formula_sum  Dy2Cu2Pb2
_cell_volume  135.08411769559794
_cell_formula_units_Z  2
loop_
  _symmetry_equiv_pos_site_id
 _symmetry_equiv_pos_as_xyz
 1  'x, y, z'
loop_
 _atom_site_type_symbol
 _atom_site_label
 _atom_site_symmetry_multiplicity
 _atom_site_fract_x
 _atom_site_fract_y
 _atom_site_fract_z
 _atom_site_fract_occupancy
 Cu  Cu1  1  0.33333  0.66667  0.67648  1
 Cu  Cu2  1  0.66667  0.33333  0.17648  1
 Dy  Dy1  1  0.00000  0.00000  0.00549  1
 Dy  Dy2  1  0.00000  0.00000  0.50549  1
 Pb  Pb1  1  0.66667  0.33333  0.77493  1
 Pb  Pb2  1  0.33333  0.66667  0.27493  1
