CIF file written using JARVIS-Tools package.
data_LiV4CuO12
_symmetry_space_group_name_H-M  'C2'
_cell_length_a       6.62473
_cell_length_b       6.62473
_cell_length_c       5.85281
_cell_angle_alpha    74.752
_cell_angle_beta     105.248
_cell_angle_gamma    97.1783

_symmetry_Int_Tables_number  5
_chemical_formula_structural  LiV4CuO12
_chemical_formula_sum  LiV4CuO2
_cell_volume  238.6665597667633
_cell_formula_units_Z  1
loop_
  _symmetry_equiv_pos_site_id
 _symmetry_equiv_pos_as_xyz
 1  'x, y, z'
loop_
 _atom_site_type_symbol
 _atom_site_label
 _atom_site_symmetry_multiplicity
 _atom_site_fract_x
 _atom_site_fract_y
 _atom_site_fract_z
 _atom_site_fract_occupancy
 Cu  Cu1  1  0.91858  0.91858  0.25000  1
 Li  Li1  1  0.08718  0.08718  0.75000  1
 O  O1  1  0.02735  0.81320  0.61165  1
 O  O2  1  0.06934  0.38587  0.75207  1
 O  O3  1  0.91689  0.62947  0.21936  1
 O  O4  1  0.37556  0.64385  0.55932  1
 O  O5  1  0.20537  0.97321  0.17704  1
 O  O6  1  0.33342  0.62702  0.05681  1
 O  O7  1  0.64385  0.37556  0.94068  1
 O  O8  1  0.62947  0.91689  0.28064  1
 O  O9  1  0.62702  0.33342  0.44319  1
 O  O10  1  0.81320  0.02735  0.88835  1
 O  O11  1  0.38587  0.06934  0.74793  1
 O  O12  1  0.97321  0.20537  0.32296  1
 V  V1  1  0.79229  0.38876  0.23643  1
 V  V2  1  0.61648  0.19616  0.75003  1
 V  V3  1  0.38876  0.79229  0.26357  1
 V  V4  1  0.19616  0.61648  0.74997  1
