CIF file written using JARVIS-Tools package.
data_V2Zn2O7
_symmetry_space_group_name_H-M  'C2/m'
_cell_length_a       5.04011
_cell_length_b       5.41333
_cell_length_c       5.41333
_cell_angle_alpha    103.636
_cell_angle_beta     99.7682
_cell_angle_gamma    99.7683

_symmetry_Int_Tables_number  12
_chemical_formula_structural  V2Zn2O7
_chemical_formula_sum  V2Zn2O7
_cell_volume  138.02051337755128
_cell_formula_units_Z  1
loop_
  _symmetry_equiv_pos_site_id
 _symmetry_equiv_pos_as_xyz
 1  'x, y, z'
loop_
 _atom_site_type_symbol
 _atom_site_label
 _atom_site_symmetry_multiplicity
 _atom_site_fract_x
 _atom_site_fract_y
 _atom_site_fract_z
 _atom_site_fract_occupancy
 O  O1  1  0.22452  0.42305  0.42305  1
 O  O2  1  0.77547  0.57695  0.57695  1
 O  O3  1  0.28949  0.94650  0.61065  1
 O  O4  1  0.71051  0.38935  0.05351  1
 O  O5  1  0.00000  0.00000  0.00000  1
 O  O6  1  0.71051  0.05351  0.38935  1
 O  O7  1  0.28949  0.61065  0.94649  1
 V  V1  1  0.90204  0.23377  0.23377  1
 V  V2  1  0.09796  0.76623  0.76623  1
 Zn  Zn1  1  0.50000  0.31430  0.68570  1
 Zn  Zn2  1  0.50000  0.68570  0.31430  1
