CIF file written using JARVIS-Tools package.
data_Li7SbO6
_symmetry_space_group_name_H-M  'R3'
_cell_length_a       5.8441
_cell_length_b       5.84411
_cell_length_c       5.8441
_cell_angle_alpha    56.7823
_cell_angle_beta     56.7822
_cell_angle_gamma    56.7823

_symmetry_Int_Tables_number  146
_chemical_formula_structural  Li7SbO6
_chemical_formula_sum  Li7SbO6
_cell_volume  130.65363030388127
_cell_formula_units_Z  1
loop_
  _symmetry_equiv_pos_site_id
 _symmetry_equiv_pos_as_xyz
 1  'x, y, z'
loop_
 _atom_site_type_symbol
 _atom_site_label
 _atom_site_symmetry_multiplicity
 _atom_site_fract_x
 _atom_site_fract_y
 _atom_site_fract_z
 _atom_site_fract_occupancy
 Li  Li1  1  0.65401  0.65401  0.65401  1
 Li  Li2  1  0.12133  0.72518  0.49945  1
 Li  Li3  1  0.72518  0.49945  0.12133  1
 Li  Li4  1  0.49945  0.12133  0.72518  1
 Li  Li5  1  0.93519  0.23436  0.48725  1
 Li  Li6  1  0.23436  0.48725  0.93519  1
 Li  Li7  1  0.48725  0.93519  0.23436  1
 O  O1  1  0.79794  0.07642  0.37857  1
 O  O2  1  0.23475  0.88250  0.64137  1
 O  O3  1  0.88250  0.64137  0.23475  1
 O  O4  1  0.37857  0.79794  0.07642  1
 O  O5  1  0.07642  0.37857  0.79794  1
 O  O6  1  0.64137  0.23475  0.88250  1
 Sb  Sb1  1  0.00170  0.00170  0.00170  1
