CIF file written using JARVIS-Tools package.
data_YbHo2S4
_symmetry_space_group_name_H-M  'I-42d'
_cell_length_a       7.17644
_cell_length_b       7.17632
_cell_length_c       7.17644
_cell_angle_alpha    109.399
_cell_angle_beta     109.618
_cell_angle_gamma    109.399

_symmetry_Int_Tables_number  122
_chemical_formula_structural  YbHo2S4
_chemical_formula_sum  Yb2Ho4S8
_cell_volume  284.5023434849622
_cell_formula_units_Z  2
loop_
  _symmetry_equiv_pos_site_id
 _symmetry_equiv_pos_as_xyz
 1  'x, y, z'
loop_
 _atom_site_type_symbol
 _atom_site_label
 _atom_site_symmetry_multiplicity
 _atom_site_fract_x
 _atom_site_fract_y
 _atom_site_fract_z
 _atom_site_fract_occupancy
 Ho  Ho1  1  0.25000  0.62813  0.37813  1
 Ho  Ho2  1  0.75000  0.87187  0.12187  1
 Ho  Ho3  1  0.62187  0.37187  0.25000  1
 Ho  Ho4  1  0.87813  0.12813  0.75000  1
 S  S1  1  0.99504  0.85558  0.49475  1
 S  S2  1  0.13946  0.14442  0.13917  1
 S  S3  1  0.50525  0.00028  0.36083  1
 S  S4  1  0.36054  0.49972  0.00497  1
 S  S5  1  0.63917  0.64442  0.63946  1
 S  S6  1  0.50497  -0.00028  0.86054  1
 S  S7  1  0.86083  0.50028  0.00525  1
 S  S8  1  0.99475  0.35558  0.49504  1
 Yb  Yb1  1  0.12500  0.75000  0.87500  1
 Yb  Yb2  1  0.37500  0.25000  0.62500  1
