CIF file written using JARVIS-Tools package.
data_Li3FeS3
_symmetry_space_group_name_H-M  'C2/m'
_cell_length_a       6.61838
_cell_length_b       6.61838
_cell_length_c       6.28547
_cell_angle_alpha    84.7911
_cell_angle_beta     95.2089
_cell_angle_gamma    63.5434

_symmetry_Int_Tables_number  12
_chemical_formula_structural  Li3FeS3
_chemical_formula_sum  Li6Fe2S6
_cell_volume  242.79608975891725
_cell_formula_units_Z  2
loop_
  _symmetry_equiv_pos_site_id
 _symmetry_equiv_pos_as_xyz
 1  'x, y, z'
loop_
 _atom_site_type_symbol
 _atom_site_label
 _atom_site_symmetry_multiplicity
 _atom_site_fract_x
 _atom_site_fract_y
 _atom_site_fract_z
 _atom_site_fract_occupancy
 Fe  Fe1  1  0.17122  0.82878  0.13220  1
 Fe  Fe2  1  0.82878  0.17122  0.86780  1
 Li  Li1  1  0.43525  0.56475  0.68467  1
 Li  Li2  1  0.82308  0.82308  0.50000  1
 Li  Li3  1  0.17692  0.17692  0.50000  1
 Li  Li4  1  0.24284  0.24284  0.00000  1
 Li  Li5  1  0.75716  0.75716  0.00000  1
 Li  Li6  1  0.56475  0.43525  0.31533  1
 S  S1  1  0.12319  0.87681  0.76630  1
 S  S2  1  0.16012  0.51334  0.25839  1
 S  S3  1  0.48666  0.83988  0.25839  1
 S  S4  1  0.83988  0.48666  0.74161  1
 S  S5  1  0.51334  0.16012  0.74161  1
 S  S6  1  0.87681  0.12319  0.23370  1
