CIF file written using JARVIS-Tools package.
data_Li8NbO6
_symmetry_space_group_name_H-M  'R-3'
_cell_length_a       5.43318
_cell_length_b       5.43316
_cell_length_c       6.0233
_cell_angle_alpha    90.0014
_cell_angle_beta     116.809
_cell_angle_gamma    120.003

_symmetry_Int_Tables_number  148
_chemical_formula_structural  Li8NbO6
_chemical_formula_sum  Li8NbO6
_cell_volume  131.4456542634719
_cell_formula_units_Z  1
loop_
  _symmetry_equiv_pos_site_id
 _symmetry_equiv_pos_as_xyz
 1  'x, y, z'
loop_
 _atom_site_type_symbol
 _atom_site_label
 _atom_site_symmetry_multiplicity
 _atom_site_fract_x
 _atom_site_fract_y
 _atom_site_fract_z
 _atom_site_fract_occupancy
 Li  Li1  1  0.87105  0.76636  0.36175  1
 Li  Li2  1  0.40462  0.89532  0.63821  1
 Li  Li3  1  0.74298  0.50933  0.63831  1
 Li  Li4  1  0.31466  0.65743  0.97177  1
 Li  Li5  1  0.68534  0.34257  0.02823  1
 Li  Li6  1  0.25702  0.49067  0.36169  1
 Li  Li7  1  0.59538  0.10468  0.36179  1
 Li  Li8  1  0.12895  0.23364  0.63825  1
 Nb  Nb1  1  0.00000  0.00000  0.00000  1
 O  O1  1  0.14440  0.90887  0.75518  1
 O  O2  1  0.15364  0.76450  0.24482  1
 O  O3  1  0.48036  0.38913  0.24486  1
 O  O4  1  0.51964  0.61087  0.75514  1
 O  O5  1  0.84636  0.23550  0.75518  1
 O  O6  1  0.85560  0.09113  0.24482  1
