CIF file written using JARVIS-Tools package.
data_K3Zn2F7
_symmetry_space_group_name_H-M  'I4/mmm'
_cell_length_a       4.08757
_cell_length_b       4.08757
_cell_length_c       11.0096
_cell_angle_alpha    100.698
_cell_angle_beta     100.698
_cell_angle_gamma    90

_symmetry_Int_Tables_number  139
_chemical_formula_structural  K3Zn2F7
_chemical_formula_sum  K3Zn2F7
_cell_volume  177.49895525462884
_cell_formula_units_Z  1
loop_
  _symmetry_equiv_pos_site_id
 _symmetry_equiv_pos_as_xyz
 1  'x, y, z'
loop_
 _atom_site_type_symbol
 _atom_site_label
 _atom_site_symmetry_multiplicity
 _atom_site_fract_x
 _atom_site_fract_y
 _atom_site_fract_z
 _atom_site_fract_occupancy
 F  F1  1  0.00000  0.00000  0.00000  1
 F  F2  1  0.40490  0.90490  0.80979  1
 F  F3  1  0.90490  0.40490  0.80979  1
 F  F4  1  0.59510  0.09510  0.19021  1
 F  F5  1  0.09510  0.59510  0.19021  1
 F  F6  1  0.19290  0.19290  0.38580  1
 F  F7  1  0.80710  0.80710  0.61420  1
 K  K1  1  0.31532  0.31532  0.63064  1
 K  K2  1  0.68468  0.68468  0.36936  1
 K  K3  1  0.50000  0.50000  -0.00000  1
 Zn  Zn1  1  0.09700  0.09700  0.19400  1
 Zn  Zn2  1  0.90300  0.90300  0.80600  1
