CIF file written using JARVIS-Tools package.
data_HfCrO3
_symmetry_space_group_name_H-M  'Pnma'
_cell_length_a       4.84996
_cell_length_b       5.30319
_cell_length_c       9.20227
_cell_angle_alpha    90
_cell_angle_beta     90
_cell_angle_gamma    90

_symmetry_Int_Tables_number  62
_chemical_formula_structural  HfCrO3
_chemical_formula_sum  Hf4Cr4O2
_cell_volume  236.68443276021682
_cell_formula_units_Z  4
loop_
  _symmetry_equiv_pos_site_id
 _symmetry_equiv_pos_as_xyz
 1  'x, y, z'
loop_
 _atom_site_type_symbol
 _atom_site_label
 _atom_site_symmetry_multiplicity
 _atom_site_fract_x
 _atom_site_fract_y
 _atom_site_fract_z
 _atom_site_fract_occupancy
 Cr  Cr1  1  0.00000  0.50000  0.00000  1
 Cr  Cr2  1  0.00000  0.50000  0.50000  1
 Cr  Cr3  1  0.50000  0.00000  0.00000  1
 Cr  Cr4  1  0.50000  0.00000  0.50000  1
 Hf  Hf1  1  0.04636  0.95368  0.75000  1
 Hf  Hf2  1  0.45364  0.45368  0.75000  1
 Hf  Hf3  1  0.54636  0.54632  0.25000  1
 Hf  Hf4  1  0.95364  0.04632  0.25000  1
 O  O1  1  0.18564  0.36953  0.25000  1
 O  O2  1  0.78895  0.77972  0.39930  1
 O  O3  1  0.21105  0.22028  0.89930  1
 O  O4  1  0.28895  0.72028  0.60070  1
 O  O5  1  0.21105  0.22028  0.60070  1
 O  O6  1  0.71105  0.27972  0.39930  1
 O  O7  1  0.68564  0.13047  0.75000  1
 O  O8  1  0.71105  0.27972  0.10070  1
 O  O9  1  0.28895  0.72028  0.89930  1
 O  O10  1  0.78895  0.77972  0.10070  1
 O  O11  1  0.31436  0.86953  0.25000  1
 O  O12  1  0.81436  0.63047  0.75000  1
