CIF file written using JARVIS-Tools package.
data_Li5Mn2V3O10
_symmetry_space_group_name_H-M  'P-1'
_cell_length_a       4.94869
_cell_length_b       5.02445
_cell_length_c       7.83328
_cell_angle_alpha    105.621
_cell_angle_beta     104.061
_cell_angle_gamma    101.698

_symmetry_Int_Tables_number  2
_chemical_formula_structural  Li5Mn2V3O10
_chemical_formula_sum  Li5Mn2V3O0
_cell_volume  174.298639265574
_cell_formula_units_Z  1
loop_
  _symmetry_equiv_pos_site_id
 _symmetry_equiv_pos_as_xyz
 1  'x, y, z'
loop_
 _atom_site_type_symbol
 _atom_site_label
 _atom_site_symmetry_multiplicity
 _atom_site_fract_x
 _atom_site_fract_y
 _atom_site_fract_z
 _atom_site_fract_occupancy
 Li  Li1  1  0.21308  0.92801  0.41959  1
 Li  Li2  1  0.38938  0.28439  0.76634  1
 Li  Li3  1  0.50000  0.50000  0.50000  1
 Li  Li4  1  0.61062  0.71561  0.23366  1
 Li  Li5  1  0.78692  0.07199  0.58041  1
 Mn  Mn1  1  0.10847  0.69751  0.68794  1
 Mn  Mn2  1  0.89153  0.30249  0.31206  1
 O  O1  1  0.76666  0.53408  0.76664  1
 O  O2  1  0.53965  0.09175  0.32874  1
 O  O3  1  0.46035  0.90825  0.67126  1
 O  O4  1  0.23334  0.46592  0.23336  1
 O  O5  1  0.13473  0.30014  0.53654  1
 O  O6  1  0.94026  0.87748  0.15326  1
 O  O7  1  0.05974  0.12252  0.84674  1
 O  O8  1  0.65957  0.28594  0.05587  1
 O  O9  1  0.86527  0.69986  0.46346  1
 O  O10  1  0.34043  0.71406  0.94413  1
 V  V1  1  -0.00000  0.50000  0.00000  1
 V  V2  1  0.25954  0.08035  0.08730  1
 V  V3  1  0.74046  0.91965  0.91270  1
