CIF file written using JARVIS-Tools package.
data_PNO
_symmetry_space_group_name_H-M  'P1'
_cell_length_a       4.4984
_cell_length_b       7.06628
_cell_length_c       9.50419
_cell_angle_alpha    90.8802
_cell_angle_beta     90.0803
_cell_angle_gamma    90.7252

_symmetry_Int_Tables_number  1
_chemical_formula_structural  PNO
_chemical_formula_sum  P8N8O8
_cell_volume  302.0490946917489
_cell_formula_units_Z  8
loop_
  _symmetry_equiv_pos_site_id
 _symmetry_equiv_pos_as_xyz
 1  'x, y, z'
loop_
 _atom_site_type_symbol
 _atom_site_label
 _atom_site_symmetry_multiplicity
 _atom_site_fract_x
 _atom_site_fract_y
 _atom_site_fract_z
 _atom_site_fract_occupancy
 N  N1  1  0.35500  0.38099  0.12614  1
 N  N2  1  0.85545  0.87217  0.87595  1
 N  N3  1  0.13890  0.88837  0.13005  1
 N  N4  1  0.13755  0.86928  0.62255  1
 N  N5  1  0.26038  0.63505  0.32914  1
 N  N6  1  0.64128  0.37627  0.87410  1
 N  N7  1  0.35331  0.36581  0.62259  1
 N  N8  1  0.65511  0.36643  0.36989  1
 O  O1  1  0.24520  0.62195  0.80978  1
 O  O2  1  0.75332  0.63093  0.18924  1
 O  O3  1  0.74407  0.62188  0.68386  1
 O  O4  1  0.74492  0.12892  0.06207  1
 O  O5  1  0.74686  0.11787  0.55851  1
 O  O6  1  0.86105  0.88061  0.37293  1
 O  O7  1  0.25208  0.11558  0.43223  1
 O  O8  1  0.24523  0.12752  0.93612  1
 P  P1  1  0.49663  0.26865  0.00176  1
 P  P2  1  0.50428  0.26340  0.49419  1
 P  P3  1  0.49184  0.49588  0.25666  1
 P  P4  1  0.49541  0.48180  0.74873  1
 P  P5  1  0.02577  0.75258  0.24821  1
 P  P6  1  0.00558  0.98802  0.50283  1
 P  P7  1  0.99528  0.75943  0.75038  1
 P  P8  1  0.99549  0.99062  0.00211  1
