CIF file written using JARVIS-Tools package.
data_Na3MnSiBO7
_symmetry_space_group_name_H-M  'P2_1/m'
_cell_length_a       5.22348
_cell_length_b       6.41481
_cell_length_c       8.8846
_cell_angle_alpha    90
_cell_angle_beta     92.4189
_cell_angle_gamma    90

_symmetry_Int_Tables_number  11
_chemical_formula_structural  Na3MnSiBO7
_chemical_formula_sum  Na6Mn2Si2B2O4
_cell_volume  297.43666709033045
_cell_formula_units_Z  2
loop_
  _symmetry_equiv_pos_site_id
 _symmetry_equiv_pos_as_xyz
 1  'x, y, z'
loop_
 _atom_site_type_symbol
 _atom_site_label
 _atom_site_symmetry_multiplicity
 _atom_site_fract_x
 _atom_site_fract_y
 _atom_site_fract_z
 _atom_site_fract_occupancy
 B  B1  1  0.27803  0.25000  0.06749  1
 B  B2  1  0.72197  0.75000  0.93251  1
 Mn  Mn1  1  0.21543  0.25000  0.33290  1
 Mn  Mn2  1  0.78457  0.75000  0.66710  1
 Na  Na1  1  0.22980  0.75000  0.08180  1
 Na  Na2  1  0.74669  0.98975  0.26316  1
 Na  Na3  1  0.74669  0.51025  0.26316  1
 Na  Na4  1  0.25331  0.48975  0.73684  1
 Na  Na5  1  0.25331  0.01025  0.73684  1
 Na  Na6  1  0.77020  0.25000  0.91820  1
 O  O1  1  0.21408  0.55013  0.31685  1
 O  O2  1  0.21408  0.94987  0.31685  1
 O  O3  1  0.96105  0.75000  0.86595  1
 O  O4  1  0.03895  0.25000  0.13405  1
 O  O5  1  0.68461  0.75000  0.08003  1
 O  O6  1  0.47108  0.25000  0.18270  1
 O  O7  1  0.89324  0.25000  0.42289  1
 O  O8  1  0.52892  0.75000  0.81730  1
 O  O9  1  0.41237  0.25000  0.51917  1
 O  O10  1  0.78592  0.44987  0.68315  1
 O  O11  1  0.78592  0.05013  0.68315  1
 O  O12  1  0.58763  0.75000  0.48083  1
 O  O13  1  0.10676  0.75000  0.57711  1
 O  O14  1  0.31539  0.25000  0.91997  1
 Si  Si1  1  0.27878  0.75000  0.42882  1
 Si  Si2  1  0.72122  0.25000  0.57118  1
