CIF file written using JARVIS-Tools package.
data_Li2CoO3
_symmetry_space_group_name_H-M  'Pnnm'
_cell_length_a       3.09773
_cell_length_b       8.09022
_cell_length_c       9.76076
_cell_angle_alpha    90
_cell_angle_beta     90
_cell_angle_gamma    90

_symmetry_Int_Tables_number  58
_chemical_formula_structural  Li2CoO3
_chemical_formula_sum  Li8Co4O2
_cell_volume  244.61781255705378
_cell_formula_units_Z  4
loop_
  _symmetry_equiv_pos_site_id
 _symmetry_equiv_pos_as_xyz
 1  'x, y, z'
loop_
 _atom_site_type_symbol
 _atom_site_label
 _atom_site_symmetry_multiplicity
 _atom_site_fract_x
 _atom_site_fract_y
 _atom_site_fract_z
 _atom_site_fract_occupancy
 Co  Co1  1  0.00000  0.63324  0.59756  1
 Co  Co2  1  0.50000  0.13324  0.90244  1
 Co  Co3  1  0.50000  0.86676  0.09756  1
 Co  Co4  1  0.00000  0.36676  0.40244  1
 Li  Li1  1  0.50000  0.40675  0.10689  1
 Li  Li2  1  0.00000  0.14151  0.20944  1
 Li  Li3  1  0.50000  0.59325  0.89311  1
 Li  Li4  1  0.00000  0.90675  0.39311  1
 Li  Li5  1  0.00000  0.09325  0.60689  1
 Li  Li6  1  0.50000  0.35849  0.70944  1
 Li  Li7  1  0.00000  0.85849  0.79056  1
 Li  Li8  1  0.50000  0.64151  0.29056  1
 O  O1  1  0.50000  0.88066  0.27472  1
 O  O2  1  0.00000  0.15411  0.41565  1
 O  O3  1  0.00000  0.59978  0.41038  1
 O  O4  1  0.00000  0.40022  0.58962  1
 O  O5  1  0.00000  0.84589  0.58435  1
 O  O6  1  0.00000  0.61934  0.77472  1
 O  O7  1  0.50000  0.34589  0.91565  1
 O  O8  1  0.50000  0.90022  0.91038  1
 O  O9  1  0.50000  0.65411  0.08435  1
 O  O10  1  0.00000  0.38066  0.22528  1
 O  O11  1  0.50000  0.11934  0.72528  1
 O  O12  1  0.50000  0.09978  0.08962  1
