CIF file written using JARVIS-Tools package.
data_Li5GaO4
_symmetry_space_group_name_H-M  'P4_22_12'
_cell_length_a       6.38163
_cell_length_b       6.38163
_cell_length_c       4.68544
_cell_angle_alpha    90
_cell_angle_beta     90
_cell_angle_gamma    90

_symmetry_Int_Tables_number  94
_chemical_formula_structural  Li5GaO4
_chemical_formula_sum  Li0Ga2O8
_cell_volume  190.81531909295379
_cell_formula_units_Z  2
loop_
  _symmetry_equiv_pos_site_id
 _symmetry_equiv_pos_as_xyz
 1  'x, y, z'
loop_
 _atom_site_type_symbol
 _atom_site_label
 _atom_site_symmetry_multiplicity
 _atom_site_fract_x
 _atom_site_fract_y
 _atom_site_fract_z
 _atom_site_fract_occupancy
 Ga  Ga1  1  0.50000  0.50000  0.50000  1
 Ga  Ga2  1  0.00000  0.00000  0.00000  1
 Li  Li1  1  0.00000  0.50000  0.97637  1
 Li  Li2  1  0.50000  0.00000  0.02363  1
 Li  Li3  1  0.50000  0.50000  0.00000  1
 Li  Li4  1  0.73601  0.26399  0.00000  1
 Li  Li5  1  0.26399  0.73601  0.00000  1
 Li  Li6  1  0.23601  0.23601  0.50000  1
 Li  Li7  1  0.50000  0.00000  0.52363  1
 Li  Li8  1  0.00000  0.00000  0.50000  1
 Li  Li9  1  0.76399  0.76399  0.50000  1
 Li  Li10  1  0.00000  0.50000  0.47637  1
 O  O1  1  0.50570  0.74112  0.26581  1
 O  O2  1  0.99430  0.24112  0.23419  1
 O  O3  1  0.75888  0.00570  0.76581  1
 O  O4  1  0.74112  0.50570  0.73419  1
 O  O5  1  0.24112  0.99430  0.76581  1
 O  O6  1  0.25888  0.49430  0.73419  1
 O  O7  1  0.49430  0.25888  0.26581  1
 O  O8  1  0.00570  0.75888  0.23419  1
