CIF file written using JARVIS-Tools package.
data_Li2NiO2
_symmetry_space_group_name_H-M  'P-3m1'
_cell_length_a       3.12355
_cell_length_b       3.12354
_cell_length_c       9.94212
_cell_angle_alpha    90
_cell_angle_beta     90
_cell_angle_gamma    120

_symmetry_Int_Tables_number  164
_chemical_formula_structural  Li2NiO2
_chemical_formula_sum  Li4Ni2O4
_cell_volume  84.00506964371881
_cell_formula_units_Z  2
loop_
  _symmetry_equiv_pos_site_id
 _symmetry_equiv_pos_as_xyz
 1  'x, y, z'
loop_
 _atom_site_type_symbol
 _atom_site_label
 _atom_site_symmetry_multiplicity
 _atom_site_fract_x
 _atom_site_fract_y
 _atom_site_fract_z
 _atom_site_fract_occupancy
 Li  Li1  1  0.66667  0.33333  0.17690  1
 Li  Li2  1  0.33333  0.66667  0.82310  1
 Li  Li3  1  0.33333  0.66667  0.32310  1
 Li  Li4  1  0.66667  0.33333  0.67690  1
 Ni  Ni1  1  0.00000  0.00000  0.50000  1
 Ni  Ni2  1  0.00000  0.00000  0.00000  1
 O  O1  1  0.33333  0.66667  0.61760  1
 O  O2  1  0.66667  0.33333  0.88240  1
 O  O3  1  0.33333  0.66667  0.11760  1
 O  O4  1  0.66667  0.33333  0.38240  1
