CIF file written using JARVIS-Tools package.
data_Ba3In2O5F2
_symmetry_space_group_name_H-M  'I4/mmm'
_cell_length_a       4.22386
_cell_length_b       4.22386
_cell_length_c       11.9153
_cell_angle_alpha    100.209
_cell_angle_beta     100.209
_cell_angle_gamma    90

_symmetry_Int_Tables_number  139
_chemical_formula_structural  Ba3In2O5F2
_chemical_formula_sum  Ba3In2O5F2
_cell_volume  205.79381591720147
_cell_formula_units_Z  1
loop_
  _symmetry_equiv_pos_site_id
 _symmetry_equiv_pos_as_xyz
 1  'x, y, z'
loop_
 _atom_site_type_symbol
 _atom_site_label
 _atom_site_symmetry_multiplicity
 _atom_site_fract_x
 _atom_site_fract_y
 _atom_site_fract_z
 _atom_site_fract_occupancy
 Ba  Ba1  1  0.50000  0.50000  0.00000  1
 Ba  Ba2  1  0.67690  0.67690  0.35380  1
 Ba  Ba3  1  0.32310  0.32310  0.64620  1
 F  F1  1  0.20524  0.20524  0.41047  1
 F  F2  1  0.79476  0.79476  0.58953  1
 In  In1  1  0.90885  0.90885  0.81770  1
 In  In2  1  0.09115  0.09115  0.18230  1
 O  O1  1  0.10374  0.60374  0.20748  1
 O  O2  1  0.60374  0.10374  0.20748  1
 O  O3  1  0.00000  0.00000  0.00000  1
 O  O4  1  0.89626  0.39626  0.79252  1
 O  O5  1  0.39626  0.89626  0.79252  1
