CIF file written using JARVIS-Tools package.
data_Li4TiV3O10
_symmetry_space_group_name_H-M  'P-4m2'
_cell_length_a       6.64419
_cell_length_b       6.64419
_cell_length_c       4.51916
_cell_angle_alpha    90
_cell_angle_beta     90
_cell_angle_gamma    90

_symmetry_Int_Tables_number  115
_chemical_formula_structural  Li4TiV3O10
_chemical_formula_sum  Li4TiV3O0
_cell_volume  199.49973935230312
_cell_formula_units_Z  1
loop_
  _symmetry_equiv_pos_site_id
 _symmetry_equiv_pos_as_xyz
 1  'x, y, z'
loop_
 _atom_site_type_symbol
 _atom_site_label
 _atom_site_symmetry_multiplicity
 _atom_site_fract_x
 _atom_site_fract_y
 _atom_site_fract_z
 _atom_site_fract_occupancy
 Li  Li1  1  0.75102  0.75102  0.00000  1
 Li  Li2  1  0.75102  0.24898  0.00000  1
 Li  Li3  1  0.24898  0.24898  0.00000  1
 Li  Li4  1  0.24898  0.75102  0.00000  1
 O  O1  1  0.50000  0.00000  0.76415  1
 O  O2  1  0.00000  0.50000  0.23585  1
 O  O3  1  0.00000  0.21749  0.73515  1
 O  O4  1  0.78251  0.00000  0.26485  1
 O  O5  1  0.21749  0.00000  0.26485  1
 O  O6  1  0.27904  0.50000  0.74181  1
 O  O7  1  0.50000  0.27904  0.25819  1
 O  O8  1  0.00000  0.78251  0.73515  1
 O  O9  1  0.50000  0.72096  0.25819  1
 O  O10  1  0.72096  0.50000  0.74181  1
 Ti  Ti1  1  0.50000  0.50000  0.50000  1
 V  V1  1  0.00000  0.00000  0.50000  1
 V  V2  1  0.50000  0.00000  0.39342  1
 V  V3  1  0.00000  0.50000  0.60658  1
