CIF file written using JARVIS-Tools package.
data_InAgS2
_symmetry_space_group_name_H-M  'Pna2_1'
_cell_length_a       6.79002
_cell_length_b       7.08007
_cell_length_c       8.29955
_cell_angle_alpha    90
_cell_angle_beta     90
_cell_angle_gamma    90

_symmetry_Int_Tables_number  33
_chemical_formula_structural  InAgS2
_chemical_formula_sum  In4Ag4S8
_cell_volume  398.99143797583696
_cell_formula_units_Z  4
loop_
  _symmetry_equiv_pos_site_id
 _symmetry_equiv_pos_as_xyz
 1  'x, y, z'
loop_
 _atom_site_type_symbol
 _atom_site_label
 _atom_site_symmetry_multiplicity
 _atom_site_fract_x
 _atom_site_fract_y
 _atom_site_fract_z
 _atom_site_fract_occupancy
 Ag  Ag1  1  0.12094  0.91046  0.37503  1
 Ag  Ag2  1  0.62094  0.58954  0.87503  1
 Ag  Ag3  1  0.62094  0.08954  0.62497  1
 Ag  Ag4  1  0.12094  0.41046  0.12497  1
 In  In1  1  0.61449  0.07744  0.12582  1
 In  In2  1  0.11449  0.92256  0.87418  1
 In  In3  1  0.11449  0.42256  0.62582  1
 In  In4  1  0.61449  0.57744  0.37418  1
 S  S1  1  0.98361  0.57361  0.37652  1
 S  S2  1  0.48361  0.42639  0.62348  1
 S  S3  1  0.48361  0.92639  0.87652  1
 S  S4  1  0.98361  0.07361  0.12348  1
 S  S5  1  0.99596  0.58774  0.87396  1
 S  S6  1  0.99596  0.08774  0.62604  1
 S  S7  1  0.49596  0.91226  0.37396  1
 S  S8  1  0.49596  0.41226  0.12604  1
