CIF file written using JARVIS-Tools package.
data_LiCuF4
_symmetry_space_group_name_H-M  'P2_1/c'
_cell_length_a       5.55757
_cell_length_b       4.7193
_cell_length_c       5.79042
_cell_angle_alpha    90
_cell_angle_beta     118.904
_cell_angle_gamma    90

_symmetry_Int_Tables_number  14
_chemical_formula_structural  LiCuF4
_chemical_formula_sum  Li2Cu2F8
_cell_volume  132.95223197225826
_cell_formula_units_Z  2
loop_
  _symmetry_equiv_pos_site_id
 _symmetry_equiv_pos_as_xyz
 1  'x, y, z'
loop_
 _atom_site_type_symbol
 _atom_site_label
 _atom_site_symmetry_multiplicity
 _atom_site_fract_x
 _atom_site_fract_y
 _atom_site_fract_z
 _atom_site_fract_occupancy
 Cu  Cu1  1  -0.00000  0.50000  0.50000  1
 Cu  Cu2  1  0.00000  0.00000  0.00000  1
 F  F1  1  0.15267  0.71150  0.79916  1
 F  F2  1  0.15267  0.78850  0.29916  1
 F  F3  1  0.32287  0.30768  0.64094  1
 F  F4  1  0.67713  0.80768  0.85906  1
 F  F5  1  0.32287  0.19232  0.14094  1
 F  F6  1  0.67713  0.69232  0.35906  1
 F  F7  1  0.84733  0.21150  0.70084  1
 F  F8  1  0.84733  0.28850  0.20084  1
 Li  Li1  1  0.50000  0.00000  0.50000  1
 Li  Li2  1  0.50000  0.50000  0.00000  1
