CIF file written using JARVIS-Tools package.
data_LiFe5O8
_symmetry_space_group_name_H-M  'F-43m'
_cell_length_a       5.72181
_cell_length_b       5.72187
_cell_length_c       5.72092
_cell_angle_alpha    60.0032
_cell_angle_beta     60.0022
_cell_angle_gamma    59.9904

_symmetry_Int_Tables_number  216
_chemical_formula_structural  LiFe5O8
_chemical_formula_sum  LiFe5O8
_cell_volume  132.4367245235716
_cell_formula_units_Z  1
loop_
  _symmetry_equiv_pos_site_id
 _symmetry_equiv_pos_as_xyz
 1  'x, y, z'
loop_
 _atom_site_type_symbol
 _atom_site_label
 _atom_site_symmetry_multiplicity
 _atom_site_fract_x
 _atom_site_fract_y
 _atom_site_fract_z
 _atom_site_fract_occupancy
 Fe  Fe1  1  0.75001  0.75000  0.74997  1
 Fe  Fe2  1  0.37361  0.37361  0.87918  1
 Fe  Fe3  1  0.37362  0.37362  0.37361  1
 Fe  Fe4  1  0.37361  0.87917  0.37361  1
 Fe  Fe5  1  0.87915  0.37362  0.37361  1
 Li  Li1  1  0.00003  -0.00002  -0.00001  1
 O  O1  1  0.15750  0.61423  0.61415  1
 O  O2  1  0.61422  0.15749  0.61415  1
 O  O3  1  0.61414  0.61415  0.15748  1
 O  O4  1  0.61412  0.61414  0.61423  1
 O  O5  1  0.13801  0.13801  0.58608  1
 O  O6  1  0.13800  0.13800  0.13791  1
 O  O7  1  0.58609  0.13790  0.13801  1
 O  O8  1  0.13790  0.58608  0.13802  1
