CIF file written using JARVIS-Tools package.
data_SrH4Cl2O2
_symmetry_space_group_name_H-M  'C2/c'
_cell_length_a       6.75809
_cell_length_b       6.75809
_cell_length_c       6.63379
_cell_angle_alpha    74.6096
_cell_angle_beta     105.39
_cell_angle_gamma    123.457

_symmetry_Int_Tables_number  15
_chemical_formula_structural  SrH4Cl2O2
_chemical_formula_sum  Sr2H8Cl4O4
_cell_volume  241.02328795907133
_cell_formula_units_Z  2
loop_
  _symmetry_equiv_pos_site_id
 _symmetry_equiv_pos_as_xyz
 1  'x, y, z'
loop_
 _atom_site_type_symbol
 _atom_site_label
 _atom_site_symmetry_multiplicity
 _atom_site_fract_x
 _atom_site_fract_y
 _atom_site_fract_z
 _atom_site_fract_occupancy
 Cl  Cl1  1  0.05427  0.76320  0.16350  1
 Cl  Cl2  1  0.76320  0.05427  0.33650  1
 Cl  Cl3  1  0.94573  0.23680  0.83650  1
 Cl  Cl4  1  0.23680  0.94573  0.66350  1
 H  H1  1  0.42394  0.18073  0.88337  1
 H  H2  1  0.74269  0.36041  0.57143  1
 H  H3  1  0.25731  0.63959  0.42857  1
 H  H4  1  0.63959  0.25731  0.07143  1
 H  H5  1  0.36041  0.74269  0.92857  1
 H  H6  1  0.57606  0.81927  0.11663  1
 H  H7  1  0.18073  0.42394  0.61663  1
 H  H8  1  0.81927  0.57606  0.38337  1
 O  O1  1  0.52733  0.30625  0.97844  1
 O  O2  1  0.47267  0.69375  0.02156  1
 O  O3  1  0.69375  0.47267  0.47844  1
 O  O4  1  0.30625  0.52733  0.52156  1
 Sr  Sr1  1  0.26304  0.26304  0.25000  1
 Sr  Sr2  1  0.73696  0.73696  0.75000  1
