CIF file written using JARVIS-Tools package.
data_CrO3
_symmetry_space_group_name_H-M  'C2/c'
_cell_length_a       6.63511
_cell_length_b       6.63509
_cell_length_c       5.8161
_cell_angle_alpha    74.7494
_cell_angle_beta     105.251
_cell_angle_gamma    95.6735

_symmetry_Int_Tables_number  15
_chemical_formula_structural  CrO3
_chemical_formula_sum  Cr4O2
_cell_volume  238.21374871826623
_cell_formula_units_Z  4
loop_
  _symmetry_equiv_pos_site_id
 _symmetry_equiv_pos_as_xyz
 1  'x, y, z'
loop_
 _atom_site_type_symbol
 _atom_site_label
 _atom_site_symmetry_multiplicity
 _atom_site_fract_x
 _atom_site_fract_y
 _atom_site_fract_z
 _atom_site_fract_occupancy
 Cr  Cr1  1  0.19396  0.62188  0.76465  1
 Cr  Cr2  1  0.37812  0.80604  0.26465  1
 Cr  Cr3  1  0.62188  0.19396  0.73535  1
 Cr  Cr4  1  0.80604  0.37812  0.23535  1
 O  O1  1  0.01244  0.78372  0.66087  1
 O  O2  1  0.09128  0.39152  0.80701  1
 O  O3  1  0.21628  0.98756  0.16087  1
 O  O4  1  0.34627  0.64881  0.55032  1
 O  O5  1  0.39152  0.09128  0.69299  1
 O  O6  1  0.35119  0.65373  0.05032  1
 O  O7  1  0.64881  0.34627  0.94968  1
 O  O8  1  0.60848  0.90872  0.30701  1
 O  O9  1  0.65373  0.35119  0.44968  1
 O  O10  1  0.78372  0.01244  0.83913  1
 O  O11  1  0.90872  0.60848  0.19299  1
 O  O12  1  0.98756  0.21628  0.33913  1
