CIF file written using JARVIS-Tools package.
data_SnF2
_symmetry_space_group_name_H-M  'P2_12_12_1'
_cell_length_a       4.67127
_cell_length_b       5.38605
_cell_length_c       8.23162
_cell_angle_alpha    90
_cell_angle_beta     90
_cell_angle_gamma    90

_symmetry_Int_Tables_number  19
_chemical_formula_structural  SnF2
_chemical_formula_sum  Sn4F8
_cell_volume  207.10517838175184
_cell_formula_units_Z  4
loop_
  _symmetry_equiv_pos_site_id
 _symmetry_equiv_pos_as_xyz
 1  'x, y, z'
loop_
 _atom_site_type_symbol
 _atom_site_label
 _atom_site_symmetry_multiplicity
 _atom_site_fract_x
 _atom_site_fract_y
 _atom_site_fract_z
 _atom_site_fract_occupancy
 F  F1  1  0.07346  0.78735  0.80586  1
 F  F2  1  0.57346  0.71265  0.19414  1
 F  F3  1  0.92654  0.28735  0.69414  1
 F  F4  1  0.42654  0.21265  0.30586  1
 F  F5  1  0.54189  0.10675  0.95595  1
 F  F6  1  0.04189  0.39325  0.04405  1
 F  F7  1  0.45811  0.60675  0.54405  1
 F  F8  1  0.95811  0.89325  0.45595  1
 Sn  Sn1  1  0.28882  0.00675  0.62176  1
 Sn  Sn2  1  0.78882  0.49325  0.37824  1
 Sn  Sn3  1  0.71118  0.50675  0.87824  1
 Sn  Sn4  1  0.21118  0.99325  0.12176  1
