CIF file written using JARVIS-Tools package.
data_ScCoO3
_symmetry_space_group_name_H-M  'Pnma'
_cell_length_a       4.91746
_cell_length_b       5.33089
_cell_length_c       7.17696
_cell_angle_alpha    90
_cell_angle_beta     90
_cell_angle_gamma    90

_symmetry_Int_Tables_number  62
_chemical_formula_structural  ScCoO3
_chemical_formula_sum  Sc4Co4O2
_cell_volume  188.1400202372094
_cell_formula_units_Z  4
loop_
  _symmetry_equiv_pos_site_id
 _symmetry_equiv_pos_as_xyz
 1  'x, y, z'
loop_
 _atom_site_type_symbol
 _atom_site_label
 _atom_site_symmetry_multiplicity
 _atom_site_fract_x
 _atom_site_fract_y
 _atom_site_fract_z
 _atom_site_fract_occupancy
 Co  Co1  1  0.00000  0.50000  0.00000  1
 Co  Co2  1  0.00000  0.50000  0.50000  1
 Co  Co3  1  0.50000  0.00000  0.00000  1
 Co  Co4  1  0.50000  0.00000  0.50000  1
 O  O1  1  0.68206  0.30830  0.06507  1
 O  O2  1  0.13324  0.45017  0.25000  1
 O  O3  1  0.81794  0.80830  0.43493  1
 O  O4  1  0.18206  0.19170  0.93493  1
 O  O5  1  0.31794  0.69170  0.93493  1
 O  O6  1  0.18206  0.19170  0.56507  1
 O  O7  1  0.36676  0.95017  0.25000  1
 O  O8  1  0.86676  0.54983  0.75000  1
 O  O9  1  0.68206  0.30830  0.43493  1
 O  O10  1  0.31794  0.69170  0.56507  1
 O  O11  1  0.81794  0.80830  0.06507  1
 O  O12  1  0.63324  0.04983  0.75000  1
 Sc  Sc1  1  0.96892  0.08427  0.25000  1
 Sc  Sc2  1  0.53108  0.58427  0.25000  1
 Sc  Sc3  1  0.46892  0.41573  0.75000  1
 Sc  Sc4  1  0.03108  0.91573  0.75000  1
