CIF file written using JARVIS-Tools package.
data_LiAgF2
_symmetry_space_group_name_H-M  'Pc'
_cell_length_a       3.04669
_cell_length_b       6.80602
_cell_length_c       5.80529
_cell_angle_alpha    90
_cell_angle_beta     120.933
_cell_angle_gamma    90

_symmetry_Int_Tables_number  7
_chemical_formula_structural  LiAgF2
_chemical_formula_sum  Li2Ag2F4
_cell_volume  103.25538782937792
_cell_formula_units_Z  2
loop_
  _symmetry_equiv_pos_site_id
 _symmetry_equiv_pos_as_xyz
 1  'x, y, z'
loop_
 _atom_site_type_symbol
 _atom_site_label
 _atom_site_symmetry_multiplicity
 _atom_site_fract_x
 _atom_site_fract_y
 _atom_site_fract_z
 _atom_site_fract_occupancy
 Ag  Ag1  1  0.84590  0.39289  0.37208  1
 Ag  Ag2  1  0.84590  0.60711  0.87208  1
 F  F1  1  0.91823  0.06425  0.31432  1
 F  F2  1  0.43089  0.32771  0.85637  1
 F  F3  1  0.91823  0.93575  0.81432  1
 F  F4  1  0.43089  0.67229  0.35637  1
 Li  Li1  1  0.53896  0.06501  0.93608  1
 Li  Li2  1  0.53896  0.93499  0.43608  1
