CIF file written using JARVIS-Tools package.
data_Fe3O2F4
_symmetry_space_group_name_H-M  'P-1'
_cell_length_a       4.71919
_cell_length_b       5.61928
_cell_length_c       7.7527
_cell_angle_alpha    94.6019
_cell_angle_beta     90.3446
_cell_angle_gamma    90.1412

_symmetry_Int_Tables_number  2
_chemical_formula_structural  Fe3O2F4
_chemical_formula_sum  Fe6O4F8
_cell_volume  204.92185719044417
_cell_formula_units_Z  2
loop_
  _symmetry_equiv_pos_site_id
 _symmetry_equiv_pos_as_xyz
 1  'x, y, z'
loop_
 _atom_site_type_symbol
 _atom_site_label
 _atom_site_symmetry_multiplicity
 _atom_site_fract_x
 _atom_site_fract_y
 _atom_site_fract_z
 _atom_site_fract_occupancy
 F  F1  1  0.79969  0.45547  0.25528  1
 F  F2  1  0.70937  0.95720  0.26990  1
 F  F3  1  0.31047  0.36136  0.05504  1
 F  F4  1  0.29063  0.04280  0.73010  1
 F  F5  1  0.20031  0.54453  0.74472  1
 F  F6  1  0.19963  0.19922  0.38184  1
 F  F7  1  0.80037  0.80078  0.61816  1
 F  F8  1  0.68953  0.63864  0.94496  1
 Fe  Fe1  1  0.45733  0.66451  0.18687  1
 Fe  Fe2  1  0.00136  0.85557  0.86274  1
 Fe  Fe3  1  -0.00000  0.50000  0.50000  1
 Fe  Fe4  1  0.99864  0.14443  0.13726  1
 Fe  Fe5  1  0.50000  0.00000  0.50000  1
 Fe  Fe6  1  0.54267  0.33549  0.81313  1
 O  O1  1  0.29686  0.70128  0.41076  1
 O  O2  1  0.79796  0.14247  0.92543  1
 O  O3  1  0.70314  0.29872  0.58924  1
 O  O4  1  0.20204  0.85753  0.07457  1
