CIF file written using JARVIS-Tools package.
data_Li5MnO4
_symmetry_space_group_name_H-M  'Pmn2_1'
_cell_length_a       4.95511
_cell_length_b       5.07099
_cell_length_c       7.27276
_cell_angle_alpha    90
_cell_angle_beta     90
_cell_angle_gamma    90

_symmetry_Int_Tables_number  31
_chemical_formula_structural  Li5MnO4
_chemical_formula_sum  Li0Mn2O8
_cell_volume  182.74488644570494
_cell_formula_units_Z  2
loop_
  _symmetry_equiv_pos_site_id
 _symmetry_equiv_pos_as_xyz
 1  'x, y, z'
loop_
 _atom_site_type_symbol
 _atom_site_label
 _atom_site_symmetry_multiplicity
 _atom_site_fract_x
 _atom_site_fract_y
 _atom_site_fract_z
 _atom_site_fract_occupancy
 Li  Li1  1  0.93980  0.07854  0.32568  1
 Li  Li2  1  0.93980  0.07854  0.67432  1
 Li  Li3  1  0.77505  0.58143  0.68485  1
 Li  Li4  1  0.77505  0.58143  0.31515  1
 Li  Li5  1  0.22996  0.66795  0.50000  1
 Li  Li6  1  0.72996  0.33205  0.00000  1
 Li  Li7  1  0.43980  0.92146  0.82568  1
 Li  Li8  1  0.27505  0.41857  0.18485  1
 Li  Li9  1  0.27505  0.41857  0.81515  1
 Li  Li10  1  0.43980  0.92146  0.17432  1
 Mn  Mn1  1  0.98123  0.84582  0.00000  1
 Mn  Mn2  1  0.48123  0.15418  0.50000  1
 O  O1  1  0.11969  0.19054  0.00000  1
 O  O2  1  0.09990  0.75689  0.75869  1
 O  O3  1  0.63166  0.70033  0.00000  1
 O  O4  1  0.61969  0.80946  0.50000  1
 O  O5  1  0.59990  0.24311  0.25869  1
 O  O6  1  0.59990  0.24311  0.74131  1
 O  O7  1  0.13166  0.29967  0.50000  1
 O  O8  1  0.09990  0.75689  0.24131  1
