CIF file written using JARVIS-Tools package.
data_SnF2
_symmetry_space_group_name_H-M  'P4_12_12'
_cell_length_a       5.082
_cell_length_b       5.082
_cell_length_c       8.24491
_cell_angle_alpha    90
_cell_angle_beta     90
_cell_angle_gamma    90

_symmetry_Int_Tables_number  92
_chemical_formula_structural  SnF2
_chemical_formula_sum  Sn4F8
_cell_volume  212.93854361166467
_cell_formula_units_Z  4
loop_
  _symmetry_equiv_pos_site_id
 _symmetry_equiv_pos_as_xyz
 1  'x, y, z'
loop_
 _atom_site_type_symbol
 _atom_site_label
 _atom_site_symmetry_multiplicity
 _atom_site_fract_x
 _atom_site_fract_y
 _atom_site_fract_z
 _atom_site_fract_occupancy
 F  F1  1  0.74991  0.86273  0.32417  1
 F  F2  1  0.25009  0.13727  0.82417  1
 F  F3  1  0.86273  0.74991  0.67583  1
 F  F4  1  0.36273  0.75009  0.07417  1
 F  F5  1  0.13727  0.25009  0.17583  1
 F  F6  1  0.24991  0.63727  0.42583  1
 F  F7  1  0.75009  0.36273  0.92583  1
 F  F8  1  0.63727  0.24991  0.57417  1
 Sn  Sn1  1  0.02114  0.02114  0.50000  1
 Sn  Sn2  1  0.47886  0.52114  0.75000  1
 Sn  Sn3  1  0.52114  0.47886  0.25000  1
 Sn  Sn4  1  0.97886  0.97886  0.00000  1
