CIF file written using JARVIS-Tools package.
data_AgClO2
_symmetry_space_group_name_H-M  'Cm'
_cell_length_a       4.31014
_cell_length_b       4.29969
_cell_length_c       5.03675
_cell_angle_alpha    90.3671
_cell_angle_beta     89.996
_cell_angle_gamma    120.082

_symmetry_Int_Tables_number  8
_chemical_formula_structural  AgClO2
_chemical_formula_sum  AgClO2
_cell_volume  80.76796700633135
_cell_formula_units_Z  1
loop_
  _symmetry_equiv_pos_site_id
 _symmetry_equiv_pos_as_xyz
 1  'x, y, z'
loop_
 _atom_site_type_symbol
 _atom_site_label
 _atom_site_symmetry_multiplicity
 _atom_site_fract_x
 _atom_site_fract_y
 _atom_site_fract_z
 _atom_site_fract_occupancy
 Ag  Ag1  1  0.90869  0.56881  0.09572  1
 Cl  Cl1  1  0.57846  0.90826  0.01749  1
 O  O1  1  0.10064  -0.04757  0.53157  1
 O  O2  1  0.26722  0.28583  0.51408  1
