CIF file written using JARVIS-Tools package.
data_V6O7F5
_symmetry_space_group_name_H-M  'Amm2'
_cell_length_a       4.67295
_cell_length_b       4.67295
_cell_length_c       8.96143
_cell_angle_alpha    90
_cell_angle_beta     90
_cell_angle_gamma    94.1503

_symmetry_Int_Tables_number  38
_chemical_formula_structural  V6O7F5
_chemical_formula_sum  V6O7F5
_cell_volume  195.17266667386167
_cell_formula_units_Z  1
loop_
  _symmetry_equiv_pos_site_id
 _symmetry_equiv_pos_as_xyz
 1  'x, y, z'
loop_
 _atom_site_type_symbol
 _atom_site_label
 _atom_site_symmetry_multiplicity
 _atom_site_fract_x
 _atom_site_fract_y
 _atom_site_fract_z
 _atom_site_fract_occupancy
 F  F1  1  0.80106  0.19894  0.49847  1
 F  F2  1  0.20165  0.79835  0.83367  1
 F  F3  1  0.20165  0.79835  0.49966  1
 F  F4  1  0.80106  0.19894  0.83487  1
 F  F5  1  0.79754  0.20246  0.16667  1
 O  O1  1  0.30135  0.29729  0.66667  1
 O  O2  1  0.19764  0.80236  0.16667  1
 O  O3  1  0.29605  0.29967  -0.00277  1
 O  O4  1  0.29605  0.29967  0.33610  1
 O  O5  1  0.70033  0.70395  -0.00277  1
 O  O6  1  0.70271  0.69865  0.66667  1
 O  O7  1  0.70033  0.70395  0.33610  1
 V  V1  1  0.50181  0.49819  0.49880  1
 V  V2  1  0.50181  0.49819  0.83453  1
 V  V3  1  0.47574  0.52426  0.16667  1
 V  V4  1  -0.00152  0.00152  0.66667  1
 V  V5  1  0.01237  0.98763  0.32453  1
 V  V6  1  0.01237  0.98763  0.00880  1
