CIF file written using JARVIS-Tools package.
data_BaWO4
_symmetry_space_group_name_H-M  'Cmc2_1'
_cell_length_a       3.98429
_cell_length_b       6.03214
_cell_length_c       7.55642
_cell_angle_alpha    90
_cell_angle_beta     105.286
_cell_angle_gamma    90

_symmetry_Int_Tables_number  36
_chemical_formula_structural  BaWO4
_chemical_formula_sum  Ba2W2O8
_cell_volume  175.18455536099427
_cell_formula_units_Z  2
loop_
  _symmetry_equiv_pos_site_id
 _symmetry_equiv_pos_as_xyz
 1  'x, y, z'
loop_
 _atom_site_type_symbol
 _atom_site_label
 _atom_site_symmetry_multiplicity
 _atom_site_fract_x
 _atom_site_fract_y
 _atom_site_fract_z
 _atom_site_fract_occupancy
 Ba  Ba1  1  0.14348  0.51197  0.28696  1
 Ba  Ba2  1  0.85652  0.01197  0.71304  1
 O  O1  1  0.51383  0.69355  0.02766  1
 O  O2  1  0.67116  0.22319  0.34232  1
 O  O3  1  0.08000  0.97761  0.15999  1
 O  O4  1  0.92000  0.47761  0.84001  1
 O  O5  1  0.68864  0.79055  0.37728  1
 O  O6  1  0.31136  0.29055  0.62272  1
 O  O7  1  0.32884  0.72319  0.65768  1
 O  O8  1  0.48617  0.19355  0.97234  1
 W  W1  1  0.40696  0.49084  0.81392  1
 W  W2  1  0.59304  0.99084  0.18608  1
