CIF file written using JARVIS-Tools package.
data_Mn2ZnO4
_symmetry_space_group_name_H-M  'I4_1/a'
_cell_length_a       5.96278
_cell_length_b       5.96278
_cell_length_c       5.96261
_cell_angle_alpha    92.4256
_cell_angle_beta     118.61
_cell_angle_gamma    118.609

_symmetry_Int_Tables_number  88
_chemical_formula_structural  Mn2ZnO4
_chemical_formula_sum  Mn4Zn2O8
_cell_volume  152.9080884553415
_cell_formula_units_Z  2
loop_
  _symmetry_equiv_pos_site_id
 _symmetry_equiv_pos_as_xyz
 1  'x, y, z'
loop_
 _atom_site_type_symbol
 _atom_site_label
 _atom_site_symmetry_multiplicity
 _atom_site_fract_x
 _atom_site_fract_y
 _atom_site_fract_z
 _atom_site_fract_occupancy
 Mn  Mn1  1  0.50000  0.50000  0.50000  1
 Mn  Mn2  1  0.00000  0.00000  0.50000  1
 Mn  Mn3  1  0.49999  0.50000  -0.00000  1
 Mn  Mn4  1  -0.00000  0.50000  0.50000  1
 O  O1  1  0.48377  0.28205  0.23409  1
 O  O2  1  0.95204  0.70171  0.71795  1
 O  O3  1  0.54797  0.76590  0.24969  1
 O  O4  1  0.98378  0.24968  0.70172  1
 O  O5  1  0.45203  0.23409  0.75031  1
 O  O6  1  0.04796  0.29829  0.28206  1
 O  O7  1  0.01623  0.75032  0.29829  1
 O  O8  1  0.51623  0.71795  0.76591  1
 Zn  Zn1  1  0.74999  0.12500  0.87499  1
 Zn  Zn2  1  0.25001  0.87500  0.12501  1
