CIF file written using JARVIS-Tools package.
data_Ba2AlV3O7
_symmetry_space_group_name_H-M  'Pmmm'
_cell_length_a       3.85947
_cell_length_b       3.9238
_cell_length_c       11.2337
_cell_angle_alpha    90
_cell_angle_beta     90
_cell_angle_gamma    90

_symmetry_Int_Tables_number  47
_chemical_formula_structural  Ba2AlV3O7
_chemical_formula_sum  Ba2AlV3O7
_cell_volume  170.1211092271513
_cell_formula_units_Z  1
loop_
  _symmetry_equiv_pos_site_id
 _symmetry_equiv_pos_as_xyz
 1  'x, y, z'
loop_
 _atom_site_type_symbol
 _atom_site_label
 _atom_site_symmetry_multiplicity
 _atom_site_fract_x
 _atom_site_fract_y
 _atom_site_fract_z
 _atom_site_fract_occupancy
 Al  Al1  1  0.50000  0.50000  0.50000  1
 Ba  Ba1  1  0.50000  0.50000  0.82030  1
 Ba  Ba2  1  0.50000  0.50000  0.17970  1
 O  O1  1  0.00000  0.50000  0.00000  1
 O  O2  1  0.50000  0.00000  0.61211  1
 O  O3  1  0.50000  0.00000  0.38789  1
 O  O4  1  0.00000  0.50000  0.61193  1
 O  O5  1  0.00000  0.50000  0.38807  1
 O  O6  1  0.00000  0.00000  0.82266  1
 O  O7  1  0.00000  0.00000  0.17734  1
 V  V1  1  0.00000  0.00000  0.64624  1
 V  V2  1  0.00000  0.00000  0.35376  1
 V  V3  1  0.00000  0.00000  0.00000  1
