CIF file written using JARVIS-Tools package.
data_Zn3GaB6PO12
_symmetry_space_group_name_H-M  'R3m'
_cell_length_a       6.6283
_cell_length_b       6.66006
_cell_length_c       6.66007
_cell_angle_alpha    109.568
_cell_angle_beta     109.375
_cell_angle_gamma    109.375

_symmetry_Int_Tables_number  160
_chemical_formula_structural  Zn3GaB6PO12
_chemical_formula_sum  Zn3GaB6PO2
_cell_volume  226.5968406957957
_cell_formula_units_Z  1
loop_
  _symmetry_equiv_pos_site_id
 _symmetry_equiv_pos_as_xyz
 1  'x, y, z'
loop_
 _atom_site_type_symbol
 _atom_site_label
 _atom_site_symmetry_multiplicity
 _atom_site_fract_x
 _atom_site_fract_y
 _atom_site_fract_z
 _atom_site_fract_occupancy
 B  B1  1  0.75035  0.24788  0.50168  1
 B  B2  1  0.24868  0.74620  0.49832  1
 B  B3  1  0.50247  0.75212  0.25380  1
 B  B4  1  0.24868  0.49832  0.74620  1
 B  B5  1  0.50247  0.25380  0.75212  1
 B  B6  1  0.75035  0.50168  0.24788  1
 Ga  Ga1  1  0.65453  0.00000  0.00000  1
 O  O1  1  -0.00003  0.43147  0.71316  1
 O  O2  1  -0.00003  0.71316  0.43147  1
 O  O3  1  0.43103  -0.00000  0.72408  1
 O  O4  1  0.29338  0.57293  0.57293  1
 O  O5  1  0.28681  0.71831  0.28684  1
 O  O6  1  0.43103  0.72408  -0.00000  1
 O  O7  1  0.56850  0.28169  0.56853  1
 O  O8  1  0.28681  0.28684  0.71831  1
 O  O9  1  0.70695  0.27592  0.27592  1
 O  O10  1  0.72046  0.42707  -0.00000  1
 O  O11  1  0.72046  -0.00000  0.42707  1
 O  O12  1  0.56850  0.56853  0.28169  1
 P  P1  1  0.99374  0.00000  0.00000  1
 Zn  Zn1  1  0.33476  0.33471  0.33471  1
 Zn  Zn2  1  0.00005  0.66529  -0.00000  1
 Zn  Zn3  1  0.00005  0.00000  0.66529  1
