CIF file written using JARVIS-Tools package.
data_Ti3O5
_symmetry_space_group_name_H-M  'C2/m'
_cell_length_a       3.86105
_cell_length_b       5.25968
_cell_length_c       9.33378
_cell_angle_alpha    91.0489
_cell_angle_beta     90
_cell_angle_gamma    111.533

_symmetry_Int_Tables_number  12
_chemical_formula_structural  Ti3O5
_chemical_formula_sum  Ti6O0
_cell_volume  176.2851721330114
_cell_formula_units_Z  2
loop_
  _symmetry_equiv_pos_site_id
 _symmetry_equiv_pos_as_xyz
 1  'x, y, z'
loop_
 _atom_site_type_symbol
 _atom_site_label
 _atom_site_symmetry_multiplicity
 _atom_site_fract_x
 _atom_site_fract_y
 _atom_site_fract_z
 _atom_site_fract_occupancy
 O  O1  1  0.58748  0.17496  0.34054  1
 O  O2  1  0.41252  0.82504  0.65946  1
 O  O3  1  0.67338  0.34677  0.05466  1
 O  O4  1  0.32662  0.65323  0.94534  1
 O  O5  1  0.87134  0.74268  0.44259  1
 O  O6  1  0.12866  0.25732  0.55741  1
 O  O7  1  0.24248  0.48495  0.24356  1
 O  O8  1  0.75752  0.51505  0.75644  1
 O  O9  1  0.04257  0.08515  0.84709  1
 O  O10  1  0.95743  0.91485  0.15291  1
 Ti  Ti1  1  0.94348  0.88697  0.64000  1
 Ti  Ti2  1  0.05652  0.11303  0.36000  1
 Ti  Ti3  1  0.86855  0.73710  0.95524  1
 Ti  Ti4  1  0.13145  0.26290  0.04476  1
 Ti  Ti5  1  0.22078  0.44156  0.73706  1
 Ti  Ti6  1  0.77922  0.55844  0.26294  1
