CIF file written using JARVIS-Tools package.
data_K3TaO8
_symmetry_space_group_name_H-M  'I-42m'
_cell_length_a       6.20545
_cell_length_b       6.20545
_cell_length_c       6.20545
_cell_angle_alpha    102.17
_cell_angle_beta     113.241
_cell_angle_gamma    113.241

_symmetry_Int_Tables_number  121
_chemical_formula_structural  K3TaO8
_chemical_formula_sum  K3TaO8
_cell_volume  181.74891066854582
_cell_formula_units_Z  1
loop_
  _symmetry_equiv_pos_site_id
 _symmetry_equiv_pos_as_xyz
 1  'x, y, z'
loop_
 _atom_site_type_symbol
 _atom_site_label
 _atom_site_symmetry_multiplicity
 _atom_site_fract_x
 _atom_site_fract_y
 _atom_site_fract_z
 _atom_site_fract_occupancy
 K  K1  1  0.50000  0.25000  0.75000  1
 K  K2  1  0.50000  0.75000  0.25000  1
 K  K3  1  0.00000  0.50000  0.50000  1
 O  O1  1  0.28157  0.33272  0.33272  1
 O  O2  1  0.00000  0.66728  0.94885  1
 O  O3  1  0.00000  0.94885  0.66728  1
 O  O4  1  0.71843  0.05115  0.05115  1
 O  O5  1  0.42879  0.23376  0.23376  1
 O  O6  1  -0.00000  0.76624  0.19503  1
 O  O7  1  0.00000  0.19503  0.76624  1
 O  O8  1  0.57121  0.80497  0.80497  1
 Ta  Ta1  1  0.00000  0.00000  0.00000  1
