CIF file written using JARVIS-Tools package.
data_Sr2CoMoO6
_symmetry_space_group_name_H-M  'I4/m'
_cell_length_a       5.60137
_cell_length_b       5.60137
_cell_length_c       5.60137
_cell_angle_alpha    89.0806
_cell_angle_beta     120.532
_cell_angle_gamma    120.532

_symmetry_Int_Tables_number  87
_chemical_formula_structural  Sr2CoMoO6
_chemical_formula_sum  Sr2CoMoO6
_cell_volume  123.25359542828306
_cell_formula_units_Z  1
loop_
  _symmetry_equiv_pos_site_id
 _symmetry_equiv_pos_as_xyz
 1  'x, y, z'
loop_
 _atom_site_type_symbol
 _atom_site_label
 _atom_site_symmetry_multiplicity
 _atom_site_fract_x
 _atom_site_fract_y
 _atom_site_fract_z
 _atom_site_fract_occupancy
 Co  Co1  1  0.00000  0.00000  0.00000  1
 Mo  Mo1  1  -0.00000  0.50000  0.50000  1
 O  O1  1  0.00000  0.74284  0.74284  1
 O  O2  1  1.00000  0.25716  0.25716  1
 O  O3  1  0.48730  0.77833  0.70897  1
 O  O4  1  0.93064  0.70897  0.22167  1
 O  O5  1  0.51270  0.22167  0.29103  1
 O  O6  1  0.06936  0.29103  0.77833  1
 Sr  Sr1  1  0.50000  0.75000  0.25000  1
 Sr  Sr2  1  0.50000  0.25000  0.75000  1
