CIF file written using JARVIS-Tools package.
data_MgV2O6
_symmetry_space_group_name_H-M  'Pc'
_cell_length_a       4.82876
_cell_length_b       5.26667
_cell_length_c       8.13405
_cell_angle_alpha    89.9922
_cell_angle_beta     89.9973
_cell_angle_gamma    93.342

_symmetry_Int_Tables_number  7
_chemical_formula_structural  MgV2O6
_chemical_formula_sum  Mg2V4O2
_cell_volume  206.50946334156023
_cell_formula_units_Z  2
loop_
  _symmetry_equiv_pos_site_id
 _symmetry_equiv_pos_as_xyz
 1  'x, y, z'
loop_
 _atom_site_type_symbol
 _atom_site_label
 _atom_site_symmetry_multiplicity
 _atom_site_fract_x
 _atom_site_fract_y
 _atom_site_fract_z
 _atom_site_fract_occupancy
 Mg  Mg1  1  0.58679  0.49514  0.75173  1
 Mg  Mg2  1  0.08694  -0.00395  0.24830  1
 O  O1  1  0.73429  0.74841  0.57411  1
 O  O2  1  0.22622  0.77385  0.43247  1
 O  O3  1  0.35161  -0.00234  0.75256  1
 O  O4  1  0.20831  0.25185  0.06694  1
 O  O5  1  0.70762  0.27360  0.93921  1
 O  O6  1  0.72661  0.27337  0.56756  1
 O  O7  1  0.20718  0.77430  0.06089  1
 O  O8  1  0.70788  0.75106  0.93297  1
 O  O9  1  0.17684  0.49397  0.71049  1
 O  O10  1  0.67691  0.99379  0.28953  1
 O  O11  1  0.23473  0.24897  0.42588  1
 O  O12  1  0.85153  0.49746  0.24745  1
 V  V1  1  0.54915  0.97642  0.48171  1
 V  V2  1  0.04915  0.47661  0.51831  1
 V  V3  1  0.97016  0.48886  0.05810  1
 V  V4  1  0.47026  0.98859  0.94189  1
