CIF file written using JARVIS-Tools package.
data_BaH2O3
_symmetry_space_group_name_H-M  'Pmc2_1'
_cell_length_a       3.92532
_cell_length_b       5.84891
_cell_length_c       6.33289
_cell_angle_alpha    89.9497
_cell_angle_beta     89.9997
_cell_angle_gamma    89.9981

_symmetry_Int_Tables_number  26
_chemical_formula_structural  BaH2O3
_chemical_formula_sum  Ba2H4O6
_cell_volume  145.39609671464723
_cell_formula_units_Z  2
loop_
  _symmetry_equiv_pos_site_id
 _symmetry_equiv_pos_as_xyz
 1  'x, y, z'
loop_
 _atom_site_type_symbol
 _atom_site_label
 _atom_site_symmetry_multiplicity
 _atom_site_fract_x
 _atom_site_fract_y
 _atom_site_fract_z
 _atom_site_fract_occupancy
 Ba  Ba1  1  0.00002  0.69414  0.18369  1
 Ba  Ba2  1  0.00005  0.30576  0.68399  1
 H  H1  1  0.78972  0.19076  0.21471  1
 H  H2  1  0.21027  0.19076  0.21471  1
 H  H3  1  0.21025  0.80916  0.71405  1
 H  H4  1  0.78967  0.80917  0.71403  1
 O  O1  1  -0.00000  0.18588  0.11720  1
 O  O2  1  -0.00003  0.81401  0.61656  1
 O  O3  1  0.50001  0.20268  0.38629  1
 O  O4  1  0.49998  -0.20250  0.88573  1
 O  O5  1  0.50004  0.45837  0.42747  1
 O  O6  1  0.50003  0.54181  0.92737  1
