CIF file written using JARVIS-Tools package.
data_ScVO4
_symmetry_space_group_name_H-M  'I4_1/amd'
_cell_length_a       5.72612
_cell_length_b       5.72612
_cell_length_c       5.72612
_cell_angle_alpha    106.882
_cell_angle_beta     106.882
_cell_angle_gamma    114.784

_symmetry_Int_Tables_number  141
_chemical_formula_structural  ScVO4
_chemical_formula_sum  Sc2V2O8
_cell_volume  143.58926673921857
_cell_formula_units_Z  2
loop_
  _symmetry_equiv_pos_site_id
 _symmetry_equiv_pos_as_xyz
 1  'x, y, z'
loop_
 _atom_site_type_symbol
 _atom_site_label
 _atom_site_symmetry_multiplicity
 _atom_site_fract_x
 _atom_site_fract_y
 _atom_site_fract_z
 _atom_site_fract_occupancy
 O  O1  1  0.80353  0.74777  0.44424  1
 O  O2  1  0.35930  0.80353  0.55576  1
 O  O3  1  0.74777  0.80353  0.94424  1
 O  O4  1  0.80353  0.35930  0.05576  1
 O  O5  1  0.64070  0.19647  0.44424  1
 O  O6  1  0.19647  0.25223  0.55576  1
 O  O7  1  0.19647  0.64070  0.94424  1
 O  O8  1  0.25223  0.19647  0.05576  1
 Sc  Sc1  1  0.87500  0.12500  0.75000  1
 Sc  Sc2  1  0.12500  0.87500  0.25000  1
 V  V1  1  0.62500  0.37500  0.25000  1
 V  V2  1  0.37500  0.62500  0.75000  1
