CIF file written using JARVIS-Tools package.
data_Ag2CO3
_symmetry_space_group_name_H-M  'P2_1/m'
_cell_length_a       3.17577
_cell_length_b       9.68764
_cell_length_c       4.98922
_cell_angle_alpha    90
_cell_angle_beta     95.0048
_cell_angle_gamma    90

_symmetry_Int_Tables_number  11
_chemical_formula_structural  Ag2CO3
_chemical_formula_sum  Ag4C2O6
_cell_volume  152.91155982380045
_cell_formula_units_Z  2
loop_
  _symmetry_equiv_pos_site_id
 _symmetry_equiv_pos_as_xyz
 1  'x, y, z'
loop_
 _atom_site_type_symbol
 _atom_site_label
 _atom_site_symmetry_multiplicity
 _atom_site_fract_x
 _atom_site_fract_y
 _atom_site_fract_z
 _atom_site_fract_occupancy
 Ag  Ag1  1  0.76030  0.42947  0.79917  1
 Ag  Ag2  1  0.23970  0.92947  0.20083  1
 Ag  Ag3  1  0.23970  0.57053  0.20083  1
 Ag  Ag4  1  0.76030  0.07053  0.79917  1
 C  C1  1  0.18781  0.25000  0.28395  1
 C  C2  1  0.81219  0.75000  0.71605  1
 O  O1  1  0.71711  0.86550  0.59603  1
 O  O2  1  0.28289  0.36550  0.40397  1
 O  O3  1  0.99291  0.25000  0.04177  1
 O  O4  1  0.00709  0.75000  0.95823  1
 O  O5  1  0.71711  0.63450  0.59603  1
 O  O6  1  0.28289  0.13450  0.40397  1
