CIF file written using JARVIS-Tools package.
data_Tm3TaO7
_symmetry_space_group_name_H-M  'C222_1'
_cell_length_a       6.39503
_cell_length_b       6.39503
_cell_length_c       7.36037
_cell_angle_alpha    90
_cell_angle_beta     90
_cell_angle_gamma    108.685

_symmetry_Int_Tables_number  20
_chemical_formula_structural  Tm3TaO7
_chemical_formula_sum  Tm6Ta2O4
_cell_volume  285.1483682178826
_cell_formula_units_Z  2
loop_
  _symmetry_equiv_pos_site_id
 _symmetry_equiv_pos_as_xyz
 1  'x, y, z'
loop_
 _atom_site_type_symbol
 _atom_site_label
 _atom_site_symmetry_multiplicity
 _atom_site_fract_x
 _atom_site_fract_y
 _atom_site_fract_z
 _atom_site_fract_occupancy
 O  O1  1  0.62936  0.37064  0.00000  1
 O  O2  1  0.07344  0.92656  0.00000  1
 O  O3  1  0.36032  0.63968  0.00000  1
 O  O4  1  0.63968  0.36032  0.50000  1
 O  O5  1  0.68837  0.94794  0.79659  1
 O  O6  1  0.37064  0.62936  0.50000  1
 O  O7  1  0.05206  0.31163  0.20341  1
 O  O8  1  0.08464  0.33205  0.77494  1
 O  O9  1  0.33205  0.08464  0.72506  1
 O  O10  1  0.91536  0.66795  0.27494  1
 O  O11  1  0.92656  0.07344  0.50000  1
 O  O12  1  0.94794  0.68837  0.70341  1
 O  O13  1  0.31163  0.05206  0.29659  1
 O  O14  1  0.66795  0.91536  0.22506  1
 Ta  Ta1  1  0.99814  0.99814  0.75000  1
 Ta  Ta2  1  0.00186  0.00186  0.25000  1
 Tm  Tm1  1  0.46438  0.99959  0.00918  1
 Tm  Tm2  1  0.00041  0.53562  0.99082  1
 Tm  Tm3  1  0.53509  0.53509  0.25000  1
 Tm  Tm4  1  0.46491  0.46491  0.75000  1
 Tm  Tm5  1  0.53562  0.00041  0.50918  1
 Tm  Tm6  1  0.99959  0.46438  0.49082  1
