CIF file written using JARVIS-Tools package.
data_K2ZnBr4
_symmetry_space_group_name_H-M  'P2_1/m'
_cell_length_a       7.23872
_cell_length_b       7.36583
_cell_length_c       8.98271
_cell_angle_alpha    90
_cell_angle_beta     108.515
_cell_angle_gamma    90

_symmetry_Int_Tables_number  11
_chemical_formula_structural  K2ZnBr4
_chemical_formula_sum  K4Zn2Br8
_cell_volume  454.1606565549728
_cell_formula_units_Z  2
loop_
  _symmetry_equiv_pos_site_id
 _symmetry_equiv_pos_as_xyz
 1  'x, y, z'
loop_
 _atom_site_type_symbol
 _atom_site_label
 _atom_site_symmetry_multiplicity
 _atom_site_fract_x
 _atom_site_fract_y
 _atom_site_fract_z
 _atom_site_fract_occupancy
 Br  Br1  1  0.89985  0.75000  0.07559  1
 Br  Br2  1  0.10015  0.25000  0.92441  1
 Br  Br3  1  0.91686  0.75000  0.62483  1
 Br  Br4  1  0.08314  0.25000  0.37517  1
 Br  Br5  1  0.49344  0.00572  0.73657  1
 Br  Br6  1  0.50656  0.50572  0.26343  1
 Br  Br7  1  0.50656  0.99428  0.26343  1
 Br  Br8  1  0.49344  0.49428  0.73657  1
 K  K1  1  0.23061  0.75000  0.42938  1
 K  K2  1  0.76939  0.25000  0.57062  1
 K  K3  1  0.28307  0.75000  0.94866  1
 K  K4  1  0.71693  0.25000  0.05134  1
 Zn  Zn1  1  0.71809  0.75000  0.79673  1
 Zn  Zn2  1  0.28191  0.25000  0.20327  1
