CIF file written using JARVIS-Tools package.
data_LuWO4
_symmetry_space_group_name_H-M  'I4_1/a'
_cell_length_a       5.15726
_cell_length_b       6.5135
_cell_length_c       5.15726
_cell_angle_alpha    66.6785
_cell_angle_beta     90
_cell_angle_gamma    113.322

_symmetry_Int_Tables_number  88
_chemical_formula_structural  LuWO4
_chemical_formula_sum  Lu2W2O8
_cell_volume  143.54411240054665
_cell_formula_units_Z  2
loop_
  _symmetry_equiv_pos_site_id
 _symmetry_equiv_pos_as_xyz
 1  'x, y, z'
loop_
 _atom_site_type_symbol
 _atom_site_label
 _atom_site_symmetry_multiplicity
 _atom_site_fract_x
 _atom_site_fract_y
 _atom_site_fract_z
 _atom_site_fract_occupancy
 Lu  Lu1  1  0.87500  0.25000  0.37500  1
 Lu  Lu2  1  0.12500  0.75000  0.62500  1
 O  O1  1  0.47383  0.07962  0.21987  1
 O  O2  1  0.79949  0.57962  0.02617  1
 O  O3  1  0.28013  0.57962  0.39422  1
 O  O4  1  0.89422  0.92038  0.29949  1
 O  O5  1  0.10578  0.07962  0.70051  1
 O  O6  1  0.71987  0.42038  0.60578  1
 O  O7  1  0.20051  0.42038  0.97383  1
 O  O8  1  0.52617  0.92038  0.78013  1
 W  W1  1  0.62500  0.75000  0.12500  1
 W  W2  1  0.37500  0.25000  0.87500  1
