CIF file written using JARVIS-Tools package.
data_LiHS
_symmetry_space_group_name_H-M  'Pcca'
_cell_length_a       3.90439
_cell_length_b       7.80409
_cell_length_c       12.1583
_cell_angle_alpha    90
_cell_angle_beta     90
_cell_angle_gamma    90

_symmetry_Int_Tables_number  54
_chemical_formula_structural  LiHS
_chemical_formula_sum  Li8H8S8
_cell_volume  370.4668301193842
_cell_formula_units_Z  8
loop_
  _symmetry_equiv_pos_site_id
 _symmetry_equiv_pos_as_xyz
 1  'x, y, z'
loop_
 _atom_site_type_symbol
 _atom_site_label
 _atom_site_symmetry_multiplicity
 _atom_site_fract_x
 _atom_site_fract_y
 _atom_site_fract_z
 _atom_site_fract_occupancy
 H  H1  1  0.00000  0.31300  0.25000  1
 H  H2  1  0.11821  0.75000  0.50000  1
 H  H3  1  0.11821  0.25000  0.00000  1
 H  H4  1  0.88179  0.25000  0.50000  1
 H  H5  1  0.88179  0.75000  0.00000  1
 H  H6  1  0.00000  0.68700  0.75000  1
 H  H7  1  0.00000  0.81300  0.25000  1
 H  H8  1  0.00000  0.18700  0.75000  1
 Li  Li1  1  0.50009  0.50129  0.37501  1
 Li  Li2  1  0.50009  0.99871  0.62499  1
 Li  Li3  1  0.49991  0.50129  0.12499  1
 Li  Li4  1  0.49991  0.99871  0.87501  1
 Li  Li5  1  0.49991  0.00129  0.37501  1
 Li  Li6  1  0.50009  0.49871  0.87501  1
 Li  Li7  1  0.49991  0.49871  0.62499  1
 Li  Li8  1  0.50009  0.00129  0.12499  1
 S  S1  1  0.00000  0.98615  0.25000  1
 S  S2  1  0.46425  0.75000  0.50000  1
 S  S3  1  0.53575  0.75000  0.00000  1
 S  S4  1  0.53575  0.25000  0.50000  1
 S  S5  1  0.46425  0.25000  0.00000  1
 S  S6  1  0.00000  0.48615  0.25000  1
 S  S7  1  0.00000  0.51385  0.75000  1
 S  S8  1  0.00000  0.01385  0.75000  1
