CIF file written using JARVIS-Tools package.
data_Co2N
_symmetry_space_group_name_H-M  'Pnnm'
_cell_length_a       2.84043
_cell_length_b       4.27896
_cell_length_c       4.55664
_cell_angle_alpha    90
_cell_angle_beta     90
_cell_angle_gamma    90

_symmetry_Int_Tables_number  58
_chemical_formula_structural  Co2N
_chemical_formula_sum  Co4N2
_cell_volume  55.38182177575478
_cell_formula_units_Z  2
loop_
  _symmetry_equiv_pos_site_id
 _symmetry_equiv_pos_as_xyz
 1  'x, y, z'
loop_
 _atom_site_type_symbol
 _atom_site_label
 _atom_site_symmetry_multiplicity
 _atom_site_fract_x
 _atom_site_fract_y
 _atom_site_fract_z
 _atom_site_fract_occupancy
 Co  Co1  1  0.50000  0.23003  0.82379  1
 Co  Co2  1  0.50000  0.76997  0.17621  1
 Co  Co3  1  0.00000  0.26997  0.32379  1
 Co  Co4  1  0.00000  0.73003  0.67621  1
 N  N1  1  0.50000  0.50000  0.50000  1
 N  N2  1  0.00000  0.00000  0.00000  1
