CIF file written using JARVIS-Tools package.
data_KAgO
_symmetry_space_group_name_H-M  'I4/mmm'
_cell_length_a       5.44877
_cell_length_b       7.48854
_cell_length_c       7.48854
_cell_angle_alpha    82.3942
_cell_angle_beta     68.6658
_cell_angle_gamma    68.6658

_symmetry_Int_Tables_number  139
_chemical_formula_structural  KAgO
_chemical_formula_sum  K4Ag4O4
_cell_volume  265.11525042597435
_cell_formula_units_Z  4
loop_
  _symmetry_equiv_pos_site_id
 _symmetry_equiv_pos_as_xyz
 1  'x, y, z'
loop_
 _atom_site_type_symbol
 _atom_site_label
 _atom_site_symmetry_multiplicity
 _atom_site_fract_x
 _atom_site_fract_y
 _atom_site_fract_z
 _atom_site_fract_occupancy
 Ag  Ag1  1  0.85019  0.00000  0.29962  1
 Ag  Ag2  1  0.85019  0.29962  0.00000  1
 Ag  Ag3  1  0.14981  0.00000  0.70038  1
 Ag  Ag4  1  0.14981  0.70038  0.00000  1
 K  K1  1  0.50000  0.32044  0.67956  1
 K  K2  1  0.50000  0.67956  0.32044  1
 K  K3  1  0.17956  0.32044  0.32044  1
 K  K4  1  0.82044  0.67956  0.67956  1
 O  O1  1  0.70439  0.29561  0.29561  1
 O  O2  1  0.00000  0.29561  0.70439  1
 O  O3  1  -0.00000  0.70439  0.29561  1
 O  O4  1  0.29561  0.70439  0.70439  1
