CIF file written using JARVIS-Tools package.
data_DyB4Mo
_symmetry_space_group_name_H-M  'Pbam'
_cell_length_a       3.64277
_cell_length_b       6.01998
_cell_length_c       11.6318
_cell_angle_alpha    90
_cell_angle_beta     90
_cell_angle_gamma    90

_symmetry_Int_Tables_number  55
_chemical_formula_structural  DyB4Mo
_chemical_formula_sum  Dy4B6Mo4
_cell_volume  255.0786681862812
_cell_formula_units_Z  4
loop_
  _symmetry_equiv_pos_site_id
 _symmetry_equiv_pos_as_xyz
 1  'x, y, z'
loop_
 _atom_site_type_symbol
 _atom_site_label
 _atom_site_symmetry_multiplicity
 _atom_site_fract_x
 _atom_site_fract_y
 _atom_site_fract_z
 _atom_site_fract_occupancy
 B  B1  1  0.50000  0.36653  0.46825  1
 B  B2  1  0.50000  0.47583  0.19352  1
 B  B3  1  0.50000  0.52417  0.80648  1
 B  B4  1  0.50000  0.97583  0.30648  1
 B  B5  1  0.50000  0.11412  0.54753  1
 B  B6  1  0.50000  0.88588  0.45247  1
 B  B7  1  0.50000  0.61412  0.95247  1
 B  B8  1  0.50000  0.38588  0.04753  1
 B  B9  1  0.50000  0.13347  0.96825  1
 B  B10  1  0.50000  0.86653  0.03175  1
 B  B11  1  0.50000  0.63347  0.53175  1
 B  B12  1  0.50000  0.02417  0.69352  1
 B  B13  1  0.50000  0.21328  0.81382  1
 B  B14  1  0.50000  0.78672  0.18618  1
 B  B15  1  0.50000  0.71328  0.68618  1
 B  B16  1  0.50000  0.28672  0.31382  1
 Dy  Dy1  1  0.00000  0.12678  0.14977  1
 Dy  Dy2  1  0.00000  0.37322  0.64977  1
 Dy  Dy3  1  0.00000  0.62678  0.35023  1
 Dy  Dy4  1  0.00000  0.87322  0.85023  1
 Mo  Mo1  1  0.00000  0.12942  0.41646  1
 Mo  Mo2  1  0.00000  0.87058  0.58354  1
 Mo  Mo3  1  0.00000  0.62942  0.08354  1
 Mo  Mo4  1  0.00000  0.37058  0.91646  1
