CIF file written using JARVIS-Tools package.
data_K5As2Au
_symmetry_space_group_name_H-M  'P6_3/mmc'
_cell_length_a       5.69842
_cell_length_b       5.69842
_cell_length_c       19.3339
_cell_angle_alpha    90
_cell_angle_beta     90
_cell_angle_gamma    120

_symmetry_Int_Tables_number  194
_chemical_formula_structural  K5As2Au
_chemical_formula_sum  K0As4Au2
_cell_volume  543.7015828600739
_cell_formula_units_Z  2
loop_
  _symmetry_equiv_pos_site_id
 _symmetry_equiv_pos_as_xyz
 1  'x, y, z'
loop_
 _atom_site_type_symbol
 _atom_site_label
 _atom_site_symmetry_multiplicity
 _atom_site_fract_x
 _atom_site_fract_y
 _atom_site_fract_z
 _atom_site_fract_occupancy
 As  As1  1  0.33333  0.66667  0.11972  1
 As  As2  1  0.66667  0.33333  0.61972  1
 As  As3  1  0.33333  0.66667  0.38028  1
 As  As4  1  0.66667  0.33333  0.88028  1
 Au  Au1  1  0.66667  0.33333  0.75000  1
 Au  Au2  1  0.33333  0.66667  0.25000  1
 K  K1  1  0.33333  0.66667  0.54970  1
 K  K2  1  0.66667  0.33333  0.04970  1
 K  K3  1  0.66667  0.33333  0.45030  1
 K  K4  1  0.33333  0.66667  0.95030  1
 K  K5  1  0.00000  0.00000  0.14801  1
 K  K6  1  0.00000  0.00000  0.64801  1
 K  K7  1  0.00000  0.00000  0.85199  1
 K  K8  1  0.00000  0.00000  0.35199  1
 K  K9  1  0.33333  0.66667  0.75000  1
 K  K10  1  0.66667  0.33333  0.25000  1
