CIF file written using JARVIS-Tools package.
data_Ga3PO7
_symmetry_space_group_name_H-M  'R3m'
_cell_length_a       5.13519
_cell_length_b       5.13519
_cell_length_c       5.13518
_cell_angle_alpha    101.957
_cell_angle_beta     101.957
_cell_angle_gamma    101.957

_symmetry_Int_Tables_number  160
_chemical_formula_structural  Ga3PO7
_chemical_formula_sum  Ga3PO7
_cell_volume  125.0988959126584
_cell_formula_units_Z  1
loop_
  _symmetry_equiv_pos_site_id
 _symmetry_equiv_pos_as_xyz
 1  'x, y, z'
loop_
 _atom_site_type_symbol
 _atom_site_label
 _atom_site_symmetry_multiplicity
 _atom_site_fract_x
 _atom_site_fract_y
 _atom_site_fract_z
 _atom_site_fract_occupancy
 Ga  Ga1  1  0.58348  0.97438  0.58348  1
 Ga  Ga2  1  0.58348  0.58348  0.97438  1
 Ga  Ga3  1  0.97438  0.58348  0.58348  1
 O  O1  1  0.28946  0.96984  0.28946  1
 O  O2  1  0.73542  0.73542  0.35635  1
 O  O3  1  0.73542  0.35635  0.73542  1
 O  O4  1  0.28946  0.28946  0.96984  1
 O  O5  1  0.96984  0.28946  0.28946  1
 O  O6  1  0.89032  0.89032  0.89032  1
 O  O7  1  0.35635  0.73542  0.73542  1
 P  P1  1  0.12392  0.12392  0.12392  1
