CIF file written using JARVIS-Tools package.
data_Li4TiCrO6
_symmetry_space_group_name_H-M  'C2'
_cell_length_a       5.01047
_cell_length_b       5.01619
_cell_length_c       5.05392
_cell_angle_alpha    70.4456
_cell_angle_beta     80.3533
_cell_angle_gamma    59.9628

_symmetry_Int_Tables_number  5
_chemical_formula_structural  Li4TiCrO6
_chemical_formula_sum  Li4TiCrO6
_cell_volume  103.62117181683304
_cell_formula_units_Z  1
loop_
  _symmetry_equiv_pos_site_id
 _symmetry_equiv_pos_as_xyz
 1  'x, y, z'
loop_
 _atom_site_type_symbol
 _atom_site_label
 _atom_site_symmetry_multiplicity
 _atom_site_fract_x
 _atom_site_fract_y
 _atom_site_fract_z
 _atom_site_fract_occupancy
 Cr  Cr1  1  0.16699  0.16652  0.49954  1
 Li  Li1  1  0.48674  0.00660  0.99955  1
 Li  Li2  1  0.50262  0.49871  0.49952  1
 Li  Li3  1  0.18596  0.65698  0.99950  1
 Li  Li4  1  0.82521  0.33739  0.99952  1
 O  O1  1  0.49725  0.77820  0.73164  1
 O  O2  1  0.49726  0.22457  0.26742  1
 O  O3  1  0.15156  0.41629  0.72693  1
 O  O4  1  0.15157  0.93217  0.27214  1
 O  O5  1  0.85983  0.56946  0.27123  1
 O  O6  1  0.85984  0.07071  0.72784  1
 Ti  Ti1  1  0.83594  0.83205  0.49952  1
