CIF file written using JARVIS-Tools package.
data_Li2V3FeO8
_symmetry_space_group_name_H-M  'R3m'
_cell_length_a       5.86526
_cell_length_b       5.86526
_cell_length_c       5.86526
_cell_angle_alpha    58.0081
_cell_angle_beta     58.0081
_cell_angle_gamma    58.0081

_symmetry_Int_Tables_number  160
_chemical_formula_structural  Li2V3FeO8
_chemical_formula_sum  Li2V3FeO8
_cell_volume  136.15563861720784
_cell_formula_units_Z  1
loop_
  _symmetry_equiv_pos_site_id
 _symmetry_equiv_pos_as_xyz
 1  'x, y, z'
loop_
 _atom_site_type_symbol
 _atom_site_label
 _atom_site_symmetry_multiplicity
 _atom_site_fract_x
 _atom_site_fract_y
 _atom_site_fract_z
 _atom_site_fract_occupancy
 Fe  Fe1  1  0.87806  0.87806  0.87806  1
 Li  Li1  1  0.12641  0.12641  0.12641  1
 Li  Li2  1  0.49508  0.49508  0.49508  1
 O  O1  1  0.26136  0.26136  0.26136  1
 O  O2  1  0.24689  0.24689  0.71869  1
 O  O3  1  0.24689  0.71869  0.24689  1
 O  O4  1  0.71869  0.24689  0.24689  1
 O  O5  1  0.26924  0.75083  0.75083  1
 O  O6  1  0.75083  0.26924  0.75083  1
 O  O7  1  0.75083  0.75083  0.26924  1
 O  O8  1  0.75047  0.75047  0.75047  1
 V  V1  1  -0.00289  0.50407  0.50407  1
 V  V2  1  0.50407  -0.00289  0.50407  1
 V  V3  1  0.50407  0.50407  -0.00289  1
