CIF file written using JARVIS-Tools package.
data_LaAgO2
_symmetry_space_group_name_H-M  'R-3m'
_cell_length_a       3.82648
_cell_length_b       6.55001
_cell_length_c       3.82648
_cell_angle_alpha    106.984
_cell_angle_beta     60
_cell_angle_gamma    106.984

_symmetry_Int_Tables_number  166
_chemical_formula_structural  LaAgO2
_chemical_formula_sum  LaAgO2
_cell_volume  78.18951590297598
_cell_formula_units_Z  1
loop_
  _symmetry_equiv_pos_site_id
 _symmetry_equiv_pos_as_xyz
 1  'x, y, z'
loop_
 _atom_site_type_symbol
 _atom_site_label
 _atom_site_symmetry_multiplicity
 _atom_site_fract_x
 _atom_site_fract_y
 _atom_site_fract_z
 _atom_site_fract_occupancy
 Ag  Ag1  1  0.00000  0.00000  0.00000  1
 La  La1  1  0.50000  0.50000  0.50000  1
 O  O1  1  0.11044  0.33133  0.11044  1
 O  O2  1  0.88956  0.66867  0.88956  1
