CIF file written using JARVIS-Tools package.
data_LiFe2F5
_symmetry_space_group_name_H-M  'C2/c'
_cell_length_a       5.27055
_cell_length_b       6.34455
_cell_length_c       5.37031
_cell_angle_alpha    88.5711
_cell_angle_beta     90
_cell_angle_gamma    65.4579

_symmetry_Int_Tables_number  15
_chemical_formula_structural  LiFe2F5
_chemical_formula_sum  Li2Fe4F0
_cell_volume  163.2940513110179
_cell_formula_units_Z  2
loop_
  _symmetry_equiv_pos_site_id
 _symmetry_equiv_pos_as_xyz
 1  'x, y, z'
loop_
 _atom_site_type_symbol
 _atom_site_label
 _atom_site_symmetry_multiplicity
 _atom_site_fract_x
 _atom_site_fract_y
 _atom_site_fract_z
 _atom_site_fract_occupancy
 F  F1  1  0.46557  0.82224  0.90871  1
 F  F2  1  0.71218  0.82224  0.40870  1
 F  F3  1  0.13593  0.55828  0.83698  1
 F  F4  1  0.30579  0.55828  0.33698  1
 F  F5  1  0.69421  0.44172  0.66302  1
 F  F6  1  0.86407  0.44172  0.16302  1
 F  F7  1  0.28782  0.17776  0.59129  1
 F  F8  1  0.53443  0.17776  0.09129  1
 F  F9  1  0.94592  -0.00000  0.75000  1
 F  F10  1  0.05408  0.00000  0.25000  1
 Fe  Fe1  1  0.34469  0.80870  0.53796  1
 Fe  Fe2  1  0.84661  0.80870  0.03796  1
 Fe  Fe3  1  0.15339  0.19130  0.96204  1
 Fe  Fe4  1  0.65531  0.19130  0.46204  1
 Li  Li1  1  -0.00000  0.50000  0.50000  1
 Li  Li2  1  0.50000  0.50000  0.00000  1
