CIF file written using JARVIS-Tools package.
data_Li4Cr3GaO8
_symmetry_space_group_name_H-M  'P2/m'
_cell_length_a       5.08809
_cell_length_b       5.87547
_cell_length_c       5.06571
_cell_angle_alpha    90
_cell_angle_beta     109.554
_cell_angle_gamma    90

_symmetry_Int_Tables_number  10
_chemical_formula_structural  Li4Cr3GaO8
_chemical_formula_sum  Li4Cr3GaO8
_cell_volume  142.70529390112932
_cell_formula_units_Z  1
loop_
  _symmetry_equiv_pos_site_id
 _symmetry_equiv_pos_as_xyz
 1  'x, y, z'
loop_
 _atom_site_type_symbol
 _atom_site_label
 _atom_site_symmetry_multiplicity
 _atom_site_fract_x
 _atom_site_fract_y
 _atom_site_fract_z
 _atom_site_fract_occupancy
 Cr  Cr1  1  -0.00000  0.75004  0.50000  1
 Cr  Cr2  1  -0.00000  0.24996  0.50000  1
 Cr  Cr3  1  0.50000  0.50000  0.50000  1
 Ga  Ga1  1  0.50000  0.00000  0.50000  1
 Li  Li1  1  0.00000  0.00000  0.00000  1
 Li  Li2  1  0.00000  0.50000  0.00000  1
 Li  Li3  1  0.50000  0.74838  -0.00000  1
 Li  Li4  1  0.50000  0.25162  -0.00000  1
 O  O1  1  0.75934  0.00000  0.27283  1
 O  O2  1  0.75811  0.50000  0.27589  1
 O  O3  1  0.74281  0.74879  0.72689  1
 O  O4  1  0.25719  0.74879  0.27311  1
 O  O5  1  0.74281  0.25121  0.72689  1
 O  O6  1  0.24066  0.00000  0.72717  1
 O  O7  1  0.25719  0.25121  0.27311  1
 O  O8  1  0.24189  0.50000  0.72411  1
