CIF file written using JARVIS-Tools package.
data_CoBiO4
_symmetry_space_group_name_H-M  'Imma'
_cell_length_a       6.23354
_cell_length_b       6.23354
_cell_length_c       6.95101
_cell_angle_alpha    56.1193
_cell_angle_beta     56.1194
_cell_angle_gamma    88.153

_symmetry_Int_Tables_number  74
_chemical_formula_structural  CoBiO4
_chemical_formula_sum  Co2Bi2O8
_cell_volume  170.27988429719528
_cell_formula_units_Z  2
loop_
  _symmetry_equiv_pos_site_id
 _symmetry_equiv_pos_as_xyz
 1  'x, y, z'
loop_
 _atom_site_type_symbol
 _atom_site_label
 _atom_site_symmetry_multiplicity
 _atom_site_fract_x
 _atom_site_fract_y
 _atom_site_fract_z
 _atom_site_fract_occupancy
 Bi  Bi1  1  -0.00000  -0.00000  0.50000  1
 Bi  Bi2  1  0.00000  0.00000  0.00000  1
 Co  Co1  1  0.00000  0.50000  0.50000  1
 Co  Co2  1  0.50000  0.00000  -0.00000  1
 O  O1  1  0.71651  0.77857  0.00242  1
 O  O2  1  0.25025  0.74985  0.43216  1
 O  O3  1  0.74985  0.25025  0.93216  1
 O  O4  1  0.77857  0.71651  0.50242  1
 O  O5  1  0.22143  0.28349  0.49758  1
 O  O6  1  0.25015  0.74975  0.06784  1
 O  O7  1  0.74975  0.25015  0.56784  1
 O  O8  1  0.28349  0.22143  -0.00242  1
