CIF file written using JARVIS-Tools package.
data_YMg2
_symmetry_space_group_name_H-M  'P6_3/mmc'
_cell_length_a       6.03623
_cell_length_b       6.03623
_cell_length_c       9.78614
_cell_angle_alpha    90
_cell_angle_beta     90
_cell_angle_gamma    120

_symmetry_Int_Tables_number  194
_chemical_formula_structural  YMg2
_chemical_formula_sum  Y4Mg8
_cell_volume  308.79706013792446
_cell_formula_units_Z  4
loop_
  _symmetry_equiv_pos_site_id
 _symmetry_equiv_pos_as_xyz
 1  'x, y, z'
loop_
 _atom_site_type_symbol
 _atom_site_label
 _atom_site_symmetry_multiplicity
 _atom_site_fract_x
 _atom_site_fract_y
 _atom_site_fract_z
 _atom_site_fract_occupancy
 Mg  Mg1  1  0.00000  0.00000  0.00000  1
 Mg  Mg2  1  0.00000  0.00000  0.50000  1
 Mg  Mg3  1  0.34225  0.17113  0.25000  1
 Mg  Mg4  1  0.17113  0.34225  0.75000  1
 Mg  Mg5  1  0.17113  0.82887  0.75000  1
 Mg  Mg6  1  0.82887  0.17113  0.25000  1
 Mg  Mg7  1  0.82887  0.65775  0.25000  1
 Mg  Mg8  1  0.65775  0.82887  0.75000  1
 Y  Y1  1  0.33333  0.66667  0.06530  1
 Y  Y2  1  0.66667  0.33333  0.56530  1
 Y  Y3  1  0.66667  0.33333  0.93470  1
 Y  Y4  1  0.33333  0.66667  0.43470  1
