CIF file written using JARVIS-Tools package.
data_LiFeSiO4
_symmetry_space_group_name_H-M  'Imma'
_cell_length_a       5.62222
_cell_length_b       5.54982
_cell_length_c       5.54982
_cell_angle_alpha    59.0373
_cell_angle_beta     59.5675
_cell_angle_gamma    59.5675

_symmetry_Int_Tables_number  74
_chemical_formula_structural  LiFeSiO4
_chemical_formula_sum  Li2Fe2Si2O8
_cell_volume  120.7427548406425
_cell_formula_units_Z  2
loop_
  _symmetry_equiv_pos_site_id
 _symmetry_equiv_pos_as_xyz
 1  'x, y, z'
loop_
 _atom_site_type_symbol
 _atom_site_label
 _atom_site_symmetry_multiplicity
 _atom_site_fract_x
 _atom_site_fract_y
 _atom_site_fract_z
 _atom_site_fract_occupancy
 Fe  Fe1  1  0.00000  0.50000  0.50000  1
 Fe  Fe2  1  0.50000  0.50000  0.50000  1
 Li  Li1  1  0.50000  0.50000  0.00000  1
 Li  Li2  1  0.50000  -0.00000  0.50000  1
 O  O1  1  0.23820  0.25454  0.25454  1
 O  O2  1  0.75273  0.25454  0.25454  1
 O  O3  1  0.24114  0.75966  0.25805  1
 O  O4  1  0.24114  0.25805  0.75966  1
 O  O5  1  0.75886  0.74195  0.24034  1
 O  O6  1  0.75886  0.24034  0.74195  1
 O  O7  1  0.24727  0.74546  0.74546  1
 O  O8  1  0.76180  0.74546  0.74546  1
 Si  Si1  1  0.11116  0.13884  0.13884  1
 Si  Si2  1  0.88884  0.86116  0.86116  1
