CIF file written using JARVIS-Tools package.
data_Li2FeBO4
_symmetry_space_group_name_H-M  'C222_1'
_cell_length_a       4.99941
_cell_length_b       4.99941
_cell_length_c       6.07425
_cell_angle_alpha    90
_cell_angle_beta     90
_cell_angle_gamma    92.0941

_symmetry_Int_Tables_number  20
_chemical_formula_structural  Li2FeBO4
_chemical_formula_sum  Li4Fe2B2O8
_cell_volume  151.71923102422602
_cell_formula_units_Z  2
loop_
  _symmetry_equiv_pos_site_id
 _symmetry_equiv_pos_as_xyz
 1  'x, y, z'
loop_
 _atom_site_type_symbol
 _atom_site_label
 _atom_site_symmetry_multiplicity
 _atom_site_fract_x
 _atom_site_fract_y
 _atom_site_fract_z
 _atom_site_fract_occupancy
 B  B1  1  0.17986  0.17986  0.25000  1
 B  B2  1  0.82014  0.82014  0.75000  1
 Fe  Fe1  1  0.31762  0.68238  0.00000  1
 Fe  Fe2  1  0.68238  0.31762  0.50000  1
 Li  Li1  1  0.30719  0.69281  0.50000  1
 Li  Li2  1  0.17501  0.17501  0.75000  1
 Li  Li3  1  0.82499  0.82499  0.25000  1
 Li  Li4  1  0.69281  0.30719  0.00000  1
 O  O1  1  0.21769  0.88375  0.24428  1
 O  O2  1  0.11625  0.78231  0.75572  1
 O  O3  1  0.29478  0.30430  0.04693  1
 O  O4  1  0.69570  0.70522  0.95307  1
 O  O5  1  0.70522  0.69570  0.54693  1
 O  O6  1  0.30430  0.29478  0.45307  1
 O  O7  1  0.88375  0.21769  0.25572  1
 O  O8  1  0.78231  0.11625  0.74428  1
