CIF file written using JARVIS-Tools package.
data_V4O5F7
_symmetry_space_group_name_H-M  'P1'
_cell_length_a       5.08777
_cell_length_b       5.25209
_cell_length_c       8.84578
_cell_angle_alpha    72.5886
_cell_angle_beta     105.784
_cell_angle_gamma    118.582

_symmetry_Int_Tables_number  1
_chemical_formula_structural  V4O5F7
_chemical_formula_sum  V4O5F7
_cell_volume  195.6993079770061
_cell_formula_units_Z  1
loop_
  _symmetry_equiv_pos_site_id
 _symmetry_equiv_pos_as_xyz
 1  'x, y, z'
loop_
 _atom_site_type_symbol
 _atom_site_label
 _atom_site_symmetry_multiplicity
 _atom_site_fract_x
 _atom_site_fract_y
 _atom_site_fract_z
 _atom_site_fract_occupancy
 F  F1  1  0.32719  0.66153  0.58159  1
 F  F2  1  0.32067  0.06480  0.17505  1
 F  F3  1  0.76519  0.61150  0.11453  1
 F  F4  1  0.17547  0.43688  0.32396  1
 F  F5  1  0.27669  0.12302  0.61980  1
 F  F6  1  0.23226  0.37515  0.87382  1
 F  F7  1  0.67630  0.92780  0.81646  1
 O  O1  1  0.71736  0.88334  0.37898  1
 O  O2  1  0.83449  0.16040  0.08144  1
 O  O3  1  0.83848  0.58907  0.67092  1
 O  O4  1  0.18051  0.83226  0.91762  1
 O  O5  1  0.66999  0.34358  0.41427  1
 V  V1  1  0.74952  0.22432  0.26677  1
 V  V2  1  0.54371  0.51455  0.50070  1
 V  V3  1  0.21595  0.74587  0.76006  1
 V  V4  1  -0.02378  0.00592  0.00404  1
