CIF file written using JARVIS-Tools package.
data_Te2Ru
_symmetry_space_group_name_H-M  'Pa-3'
_cell_length_a       6.4854
_cell_length_b       6.4854
_cell_length_c       6.4854
_cell_angle_alpha    90
_cell_angle_beta     90
_cell_angle_gamma    90

_symmetry_Int_Tables_number  205
_chemical_formula_structural  Te2Ru
_chemical_formula_sum  Te8Ru4
_cell_volume  272.7783080961136
_cell_formula_units_Z  4
loop_
  _symmetry_equiv_pos_site_id
 _symmetry_equiv_pos_as_xyz
 1  'x, y, z'
loop_
 _atom_site_type_symbol
 _atom_site_label
 _atom_site_symmetry_multiplicity
 _atom_site_fract_x
 _atom_site_fract_y
 _atom_site_fract_z
 _atom_site_fract_occupancy
 Ru  Ru1  1  0.00000  0.00000  0.00000  1
 Ru  Ru2  1  0.50000  0.00000  0.50000  1
 Ru  Ru3  1  0.50000  0.50000  0.00000  1
 Ru  Ru4  1  0.00000  0.50000  0.50000  1
 Te  Te1  1  0.37233  0.37233  0.37233  1
 Te  Te2  1  0.12767  0.62767  0.87233  1
 Te  Te3  1  0.87233  0.12767  0.62767  1
 Te  Te4  1  0.62767  0.87233  0.12767  1
 Te  Te5  1  0.62767  0.62767  0.62767  1
 Te  Te6  1  0.87233  0.37233  0.12767  1
 Te  Te7  1  0.12767  0.87233  0.37233  1
 Te  Te8  1  0.37233  0.12767  0.87233  1
