CIF file written using JARVIS-Tools package.
data_V2CoO6
_symmetry_space_group_name_H-M  'C2/c'
_cell_length_a       6.65593
_cell_length_b       6.65593
_cell_length_c       5.7724
_cell_angle_alpha    74.584
_cell_angle_beta     105.416
_cell_angle_gamma    96.4066

_symmetry_Int_Tables_number  15
_chemical_formula_structural  V2CoO6
_chemical_formula_sum  V4Co2O2
_cell_volume  237.42486692379669
_cell_formula_units_Z  2
loop_
  _symmetry_equiv_pos_site_id
 _symmetry_equiv_pos_as_xyz
 1  'x, y, z'
loop_
 _atom_site_type_symbol
 _atom_site_label
 _atom_site_symmetry_multiplicity
 _atom_site_fract_x
 _atom_site_fract_y
 _atom_site_fract_z
 _atom_site_fract_occupancy
 Co  Co1  1  0.08224  0.08224  0.75000  1
 Co  Co2  1  0.91776  0.91776  0.25000  1
 O  O1  1  0.62856  0.91543  0.27132  1
 O  O2  1  0.02944  0.80741  0.64134  1
 O  O3  1  0.08457  0.37144  0.77132  1
 O  O4  1  0.91543  0.62856  0.22868  1
 O  O5  1  0.37826  0.65562  0.56510  1
 O  O6  1  0.19259  0.97056  0.14134  1
 O  O7  1  0.34438  0.62174  0.06510  1
 O  O8  1  0.97056  0.19259  0.35866  1
 O  O9  1  0.37144  0.08457  0.72868  1
 O  O10  1  0.62174  0.34438  0.43490  1
 O  O11  1  0.80741  0.02944  0.85866  1
 O  O12  1  0.65562  0.37826  0.93490  1
 V  V1  1  0.79751  0.39029  0.23900  1
 V  V2  1  0.60971  0.20249  0.73900  1
 V  V3  1  0.39029  0.79751  0.26100  1
 V  V4  1  0.20249  0.60971  0.76100  1
