CIF file written using JARVIS-Tools package.
data_Li6CuF8
_symmetry_space_group_name_H-M  'C2/m'
_cell_length_a       5.74766
_cell_length_b       5.64647
_cell_length_c       5.87982
_cell_angle_alpha    90
_cell_angle_beta     117.169
_cell_angle_gamma    60.5807

_symmetry_Int_Tables_number  12
_chemical_formula_structural  Li6CuF8
_chemical_formula_sum  Li6CuF8
_cell_volume  141.5482598462921
_cell_formula_units_Z  1
loop_
  _symmetry_equiv_pos_site_id
 _symmetry_equiv_pos_as_xyz
 1  'x, y, z'
loop_
 _atom_site_type_symbol
 _atom_site_label
 _atom_site_symmetry_multiplicity
 _atom_site_fract_x
 _atom_site_fract_y
 _atom_site_fract_z
 _atom_site_fract_occupancy
 Cu  Cu1  1  0.00000  0.50000  0.50000  1
 F  F1  1  -0.00082  0.74721  0.26523  1
 F  F2  1  0.55867  0.72066  0.81795  1
 F  F3  1  0.44796  0.77602  0.22424  1
 F  F4  1  -0.00082  0.25360  0.26523  1
 F  F5  1  0.00082  0.74640  0.73477  1
 F  F6  1  0.55204  0.22398  0.77576  1
 F  F7  1  0.44133  0.27933  0.18205  1
 F  F8  1  0.00082  0.25278  0.73477  1
 Li  Li1  1  0.31068  0.84466  0.46716  1
 Li  Li2  1  0.00000  0.50000  0.00000  1
 Li  Li3  1  0.00000  1.00000  -0.00000  1
 Li  Li4  1  0.50000  0.50000  0.00000  1
 Li  Li5  1  0.68932  0.15534  0.53283  1
 Li  Li6  1  0.50000  -0.00000  0.00000  1
