CIF file written using JARVIS-Tools package.
data_MgCl2O
_symmetry_space_group_name_H-M  'P2_1/c'
_cell_length_a       7.54084
_cell_length_b       5.52704
_cell_length_c       7.80165
_cell_angle_alpha    90
_cell_angle_beta     105.257
_cell_angle_gamma    90

_symmetry_Int_Tables_number  14
_chemical_formula_structural  MgCl2O
_chemical_formula_sum  Mg4Cl8O4
_cell_volume  313.7005622131275
_cell_formula_units_Z  4
loop_
  _symmetry_equiv_pos_site_id
 _symmetry_equiv_pos_as_xyz
 1  'x, y, z'
loop_
 _atom_site_type_symbol
 _atom_site_label
 _atom_site_symmetry_multiplicity
 _atom_site_fract_x
 _atom_site_fract_y
 _atom_site_fract_z
 _atom_site_fract_occupancy
 Cl  Cl1  1  0.19215  0.28438  0.95905  1
 Cl  Cl2  1  0.19215  0.21562  0.45905  1
 Cl  Cl3  1  0.35790  0.76838  0.63091  1
 Cl  Cl4  1  0.35790  0.73162  0.13091  1
 Cl  Cl5  1  0.64210  0.26838  0.86909  1
 Cl  Cl6  1  0.64210  0.23162  0.36909  1
 Cl  Cl7  1  0.80785  0.78438  0.54095  1
 Cl  Cl8  1  0.80785  0.71562  0.04095  1
 Mg  Mg1  1  0.16355  0.74165  0.83014  1
 Mg  Mg2  1  0.16355  0.75835  0.33014  1
 Mg  Mg3  1  0.83645  0.24165  0.66986  1
 Mg  Mg4  1  0.83645  0.25835  0.16986  1
 O  O1  1  0.94089  0.57655  0.67947  1
 O  O2  1  0.94089  0.92345  0.17947  1
 O  O3  1  0.05911  0.07655  0.82053  1
 O  O4  1  0.05911  0.42345  0.32053  1
