CIF file written using JARVIS-Tools package.
data_MgCr2O6
_symmetry_space_group_name_H-M  'P1'
_cell_length_a       4.87918
_cell_length_b       5.13085
_cell_length_c       7.27211
_cell_angle_alpha    90.1732
_cell_angle_beta     89.0004
_cell_angle_gamma    91.0631

_symmetry_Int_Tables_number  1
_chemical_formula_structural  MgCr2O6
_chemical_formula_sum  Mg2Cr4O2
_cell_volume  181.99254894170858
_cell_formula_units_Z  2
loop_
  _symmetry_equiv_pos_site_id
 _symmetry_equiv_pos_as_xyz
 1  'x, y, z'
loop_
 _atom_site_type_symbol
 _atom_site_label
 _atom_site_symmetry_multiplicity
 _atom_site_fract_x
 _atom_site_fract_y
 _atom_site_fract_z
 _atom_site_fract_occupancy
 Cr  Cr1  1  0.51204  0.00700  0.02334  1
 Cr  Cr2  1  0.02724  0.48181  0.01163  1
 Cr  Cr3  1  0.01203  0.47963  0.52201  1
 Cr  Cr4  1  0.52950  0.00600  0.51342  1
 Mg  Mg1  1  0.53330  0.57062  0.25949  1
 Mg  Mg2  1  0.02877  0.92356  0.75906  1
 O  O1  1  0.68155  0.30613  0.43640  1
 O  O2  1  0.17778  0.18696  0.55955  1
 O  O3  1  0.38185  0.96927  0.24003  1
 O  O4  1  0.28116  0.71794  0.93425  1
 O  O5  1  0.78902  0.80364  0.04670  1
 O  O6  1  0.67924  0.31782  0.05827  1
 O  O7  1  0.17865  0.19769  0.93546  1
 O  O8  1  0.28849  0.70518  0.54623  1
 O  O9  1  0.12780  0.47495  0.24029  1
 O  O10  1  0.62731  0.02835  0.74044  1
 O  O11  1  0.78343  0.79331  0.43348  1
 O  O12  1  0.88304  0.53022  0.73983  1
