CIF file written using JARVIS-Tools package.
data_Li4MnFe3O8
_symmetry_space_group_name_H-M  'P1'
_cell_length_a       5.03318
_cell_length_b       5.50893
_cell_length_c       6.3716
_cell_angle_alpha    90.4187
_cell_angle_beta     89.813
_cell_angle_gamma    89.4683

_symmetry_Int_Tables_number  1
_chemical_formula_structural  Li4MnFe3O8
_chemical_formula_sum  Li4MnFe3O8
_cell_volume  176.6547242580969
_cell_formula_units_Z  1
loop_
  _symmetry_equiv_pos_site_id
 _symmetry_equiv_pos_as_xyz
 1  'x, y, z'
loop_
 _atom_site_type_symbol
 _atom_site_label
 _atom_site_symmetry_multiplicity
 _atom_site_fract_x
 _atom_site_fract_y
 _atom_site_fract_z
 _atom_site_fract_occupancy
 Fe  Fe1  1  -0.00029  0.91667  0.87555  1
 Fe  Fe2  1  0.49854  0.58278  0.37096  1
 Fe  Fe3  1  0.99894  0.41682  0.62563  1
 Li  Li1  1  0.99099  0.91632  0.37713  1
 Li  Li2  1  0.50020  0.57869  0.87524  1
 Li  Li3  1  0.99345  0.42116  0.12410  1
 Li  Li4  1  0.49912  0.08602  0.62354  1
 Mn  Mn1  1  0.49745  0.08362  0.12678  1
 O  O1  1  0.37247  0.92777  0.89256  1
 O  O2  1  0.39123  0.91183  0.35452  1
 O  O3  1  0.88707  0.58655  0.87285  1
 O  O4  1  0.88175  0.57963  0.38036  1
 O  O5  1  0.37774  0.42416  0.61983  1
 O  O6  1  0.39295  0.40162  0.13340  1
 O  O7  1  0.88713  0.08753  0.63050  1
 O  O8  1  0.85766  0.07883  0.11705  1
