CIF file written using JARVIS-Tools package.
data_Te7Mo6S5
_symmetry_space_group_name_H-M  'Cm'
_cell_length_a       3.41017
_cell_length_b       8.90248
_cell_length_c       14.4514
_cell_angle_alpha    75.2631
_cell_angle_beta     83.2222
_cell_angle_gamma    78.9583

_symmetry_Int_Tables_number  8
_chemical_formula_structural  Te7Mo6S5
_chemical_formula_sum  Te7Mo6S5
_cell_volume  415.33141895052637
_cell_formula_units_Z  1
loop_
  _symmetry_equiv_pos_site_id
 _symmetry_equiv_pos_as_xyz
 1  'x, y, z'
loop_
 _atom_site_type_symbol
 _atom_site_label
 _atom_site_symmetry_multiplicity
 _atom_site_fract_x
 _atom_site_fract_y
 _atom_site_fract_z
 _atom_site_fract_occupancy
 Mo  Mo1  1  0.79445  0.17256  0.23854  1
 Mo  Mo2  1  0.45768  0.83679  0.24786  1
 Mo  Mo3  1  0.54269  0.15467  0.75994  1
 Mo  Mo4  1  0.12837  0.50657  0.23669  1
 Mo  Mo5  1  0.87302  0.50455  0.74941  1
 Mo  Mo6  1  0.20701  0.82902  0.75698  1
 S  S1  1  0.38438  0.09388  0.13739  1
 S  S2  1  0.68325  0.97961  0.65393  1
 S  S3  1  0.28937  0.56615  0.85508  1
 S  S4  1  0.65212  0.35563  0.34010  1
 S  S5  1  0.04219  0.77500  0.14067  1
 Te  Te1  1  0.30057  0.01857  0.38025  1
 Te  Te2  1  0.97884  0.66100  0.38131  1
 Te  Te3  1  0.35651  0.67349  0.61354  1
 Te  Te4  1  0.93891  0.23169  0.89043  1
 Te  Te5  1  0.03132  0.31490  0.62247  1
 Te  Te6  1  0.72614  0.45026  0.09752  1
 Te  Te7  1  0.61319  0.87567  0.89789  1
