CIF file written using JARVIS-Tools package.
data_CaAg
_symmetry_space_group_name_H-M  'Cmcm'
_cell_length_a       4.0274
_cell_length_b       4.66055
_cell_length_c       5.96536
_cell_angle_alpha    90
_cell_angle_beta     109.729
_cell_angle_gamma    90

_symmetry_Int_Tables_number  63
_chemical_formula_structural  CaAg
_chemical_formula_sum  Ca2Ag2
_cell_volume  105.39670685869628
_cell_formula_units_Z  2
loop_
  _symmetry_equiv_pos_site_id
 _symmetry_equiv_pos_as_xyz
 1  'x, y, z'
loop_
 _atom_site_type_symbol
 _atom_site_label
 _atom_site_symmetry_multiplicity
 _atom_site_fract_x
 _atom_site_fract_y
 _atom_site_fract_z
 _atom_site_fract_occupancy
 Ag  Ag1  1  0.57792  0.25000  0.15584  1
 Ag  Ag2  1  0.42208  0.75000  0.84416  1
 Ca  Ca1  1  0.85952  0.25000  0.71905  1
 Ca  Ca2  1  0.14048  0.75000  0.28095  1
