CIF file written using JARVIS-Tools package.
data_YbOF
_symmetry_space_group_name_H-M  'C2/m'
_cell_length_a       5.49927
_cell_length_b       4.85295
_cell_length_c       5.57987
_cell_angle_alpha    90
_cell_angle_beta     98.0038
_cell_angle_gamma    90

_symmetry_Int_Tables_number  12
_chemical_formula_structural  YbOF
_chemical_formula_sum  Yb4O4F4
_cell_volume  147.4633901712219
_cell_formula_units_Z  4
loop_
  _symmetry_equiv_pos_site_id
 _symmetry_equiv_pos_as_xyz
 1  'x, y, z'
loop_
 _atom_site_type_symbol
 _atom_site_label
 _atom_site_symmetry_multiplicity
 _atom_site_fract_x
 _atom_site_fract_y
 _atom_site_fract_z
 _atom_site_fract_occupancy
 F  F1  1  0.50007  0.25337  0.99982  1
 F  F2  1  0.99993  0.75337  0.00018  1
 F  F3  1  0.49993  0.74663  0.00018  1
 F  F4  1  0.00007  0.24663  0.99982  1
 O  O1  1  0.00049  0.65662  0.50034  1
 O  O2  1  0.49951  0.15662  0.49966  1
 O  O3  1  0.99951  0.34338  0.49966  1
 O  O4  1  0.50049  0.84338  0.50034  1
 Yb  Yb1  1  0.72727  0.50008  0.75729  1
 Yb  Yb2  1  0.77273  0.00008  0.24271  1
 Yb  Yb3  1  0.27273  0.49992  0.24271  1
 Yb  Yb4  1  0.22727  0.99992  0.75729  1
