CIF file written using JARVIS-Tools package.
data_VFeO4
_symmetry_space_group_name_H-M  'Cmcm'
_cell_length_a       4.94097
_cell_length_b       4.94097
_cell_length_c       5.81715
_cell_angle_alpha    90
_cell_angle_beta     90
_cell_angle_gamma    112.248

_symmetry_Int_Tables_number  63
_chemical_formula_structural  VFeO4
_chemical_formula_sum  V2Fe2O8
_cell_volume  131.44286919911158
_cell_formula_units_Z  2
loop_
  _symmetry_equiv_pos_site_id
 _symmetry_equiv_pos_as_xyz
 1  'x, y, z'
loop_
 _atom_site_type_symbol
 _atom_site_label
 _atom_site_symmetry_multiplicity
 _atom_site_fract_x
 _atom_site_fract_y
 _atom_site_fract_z
 _atom_site_fract_occupancy
 Fe  Fe1  1  0.00000  0.00000  0.50000  1
 Fe  Fe2  1  0.00000  0.00000  0.00000  1
 O  O1  1  0.75526  0.78881  0.75000  1
 O  O2  1  0.24474  0.21119  0.25000  1
 O  O3  1  0.78882  0.75526  0.25000  1
 O  O4  1  0.21119  0.24474  0.75000  1
 O  O5  1  0.22840  0.77160  0.97754  1
 O  O6  1  0.77160  0.22840  0.47754  1
 O  O7  1  0.22840  0.77160  0.52246  1
 O  O8  1  0.77160  0.22840  0.02246  1
 V  V1  1  0.64519  0.35481  0.25000  1
 V  V2  1  0.35481  0.64519  0.75000  1
