CIF file written using JARVIS-Tools package.
data_CaFeGe2O6
_symmetry_space_group_name_H-M  'C2/c'
_cell_length_a       5.41689
_cell_length_b       6.83594
_cell_length_c       6.83594
_cell_angle_alpha    81.5795
_cell_angle_beta     80.3179
_cell_angle_gamma    80.318

_symmetry_Int_Tables_number  15
_chemical_formula_structural  CaFeGe2O6
_chemical_formula_sum  Ca2Fe2Ge4O2
_cell_volume  244.14696412107307
_cell_formula_units_Z  2
loop_
  _symmetry_equiv_pos_site_id
 _symmetry_equiv_pos_as_xyz
 1  'x, y, z'
loop_
 _atom_site_type_symbol
 _atom_site_label
 _atom_site_symmetry_multiplicity
 _atom_site_fract_x
 _atom_site_fract_y
 _atom_site_fract_z
 _atom_site_fract_occupancy
 Ca  Ca1  1  0.75000  0.30985  0.69015  1
 Ca  Ca2  1  0.25000  0.69015  0.30985  1
 Fe  Fe1  1  0.75000  0.91896  0.08104  1
 Fe  Fe2  1  0.25000  0.08104  0.91896  1
 Ge  Ge1  1  0.77011  0.38948  0.18202  1
 Ge  Ge2  1  0.72989  0.81798  0.61052  1
 Ge  Ge3  1  0.22989  0.61052  0.81798  1
 Ge  Ge4  1  0.27011  0.18202  0.38948  1
 O  O1  1  0.52520  0.32471  0.39370  1
 O  O2  1  0.13773  0.79091  0.98549  1
 O  O3  1  0.47480  0.67529  0.60630  1
 O  O4  1  0.02520  0.39370  0.32471  1
 O  O5  1  0.97480  0.60630  0.67529  1
 O  O6  1  0.86227  0.20909  0.01451  1
 O  O7  1  0.85398  0.89732  0.36415  1
 O  O8  1  0.64602  0.63585  0.10268  1
 O  O9  1  0.14602  0.10268  0.63585  1
 O  O10  1  0.63773  0.98549  0.79091  1
 O  O11  1  0.35398  0.36415  0.89732  1
 O  O12  1  0.36227  0.01451  0.20909  1
