CIF file written using JARVIS-Tools package.
data_Ce2Ni2Sn
_symmetry_space_group_name_H-M  'Immm'
_cell_length_a       4.36369
_cell_length_b       5.4425
_cell_length_c       5.44251
_cell_angle_alpha    64.9863
_cell_angle_beta     66.3661
_cell_angle_gamma    66.3662

_symmetry_Int_Tables_number  71
_chemical_formula_structural  Ce2Ni2Sn
_chemical_formula_sum  Ce2Ni2Sn
_cell_volume  103.05661116963913
_cell_formula_units_Z  1
loop_
  _symmetry_equiv_pos_site_id
 _symmetry_equiv_pos_as_xyz
 1  'x, y, z'
loop_
 _atom_site_type_symbol
 _atom_site_label
 _atom_site_symmetry_multiplicity
 _atom_site_fract_x
 _atom_site_fract_y
 _atom_site_fract_z
 _atom_site_fract_occupancy
 Ce  Ce1  1  0.79844  0.70156  0.70156  1
 Ce  Ce2  1  0.20156  0.29844  0.29844  1
 Ni  Ni1  1  0.50000  0.28989  0.71011  1
 Ni  Ni2  1  0.50000  0.71011  0.28989  1
 Sn  Sn1  1  0.00000  0.00000  0.00000  1
