CIF file written using JARVIS-Tools package.
data_LiMnCuO4
_symmetry_space_group_name_H-M  'Imma'
_cell_length_a       5.71792
_cell_length_b       5.83757
_cell_length_c       5.83983
_cell_angle_alpha    119.985
_cell_angle_beta     119.309
_cell_angle_gamma    90.003

_symmetry_Int_Tables_number  74
_chemical_formula_structural  LiMnCuO4
_chemical_formula_sum  Li2Mn2Cu2O8
_cell_volume  139.28153720077165
_cell_formula_units_Z  2
loop_
  _symmetry_equiv_pos_site_id
 _symmetry_equiv_pos_as_xyz
 1  'x, y, z'
loop_
 _atom_site_type_symbol
 _atom_site_label
 _atom_site_symmetry_multiplicity
 _atom_site_fract_x
 _atom_site_fract_y
 _atom_site_fract_z
 _atom_site_fract_occupancy
 Cu  Cu1  1  0.00000  0.50000  0.50000  1
 Cu  Cu2  1  -0.00000  -0.00000  0.50000  1
 Li  Li1  1  0.61988  0.86989  0.73976  1
 Li  Li2  1  0.38012  0.13011  0.26024  1
 Mn  Mn1  1  -0.00000  0.50000  -0.00000  1
 Mn  Mn2  1  0.50000  0.50000  -0.00000  1
 O  O1  1  0.20826  0.72628  0.45256  1
 O  O2  1  0.75326  0.28479  0.00653  1
 O  O3  1  0.75330  0.72178  0.00658  1
 O  O4  1  0.74430  0.72626  0.45256  1
 O  O5  1  0.25570  0.27374  0.54744  1
 O  O6  1  0.24674  0.71521  -0.00653  1
 O  O7  1  0.24670  0.27822  0.99342  1
 O  O8  1  0.79174  0.27372  0.54744  1
