CIF file written using JARVIS-Tools package.
data_Na2Ti2O5
_symmetry_space_group_name_H-M  'C2/m'
_cell_length_a       3.69539
_cell_length_b       6.15881
_cell_length_c       5.76035
_cell_angle_alpha    81.3642
_cell_angle_beta     90
_cell_angle_gamma    72.5418

_symmetry_Int_Tables_number  12
_chemical_formula_structural  Na2Ti2O5
_chemical_formula_sum  Na2Ti2O5
_cell_volume  123.50285191463055
_cell_formula_units_Z  1
loop_
  _symmetry_equiv_pos_site_id
 _symmetry_equiv_pos_as_xyz
 1  'x, y, z'
loop_
 _atom_site_type_symbol
 _atom_site_label
 _atom_site_symmetry_multiplicity
 _atom_site_fract_x
 _atom_site_fract_y
 _atom_site_fract_z
 _atom_site_fract_occupancy
 Na  Na1  1  0.60167  0.79666  0.35105  1
 Na  Na2  1  0.39833  0.20334  0.64895  1
 O  O1  1  0.12760  0.74481  0.59283  1
 O  O2  1  0.67814  0.64371  0.00393  1
 O  O3  1  0.32186  0.35629  0.99607  1
 O  O4  1  0.87240  0.25519  0.40717  1
 O  O5  1  0.00000  0.00000  0.00000  1
 Ti  Ti1  1  0.14618  0.70764  0.89647  1
 Ti  Ti2  1  0.85382  0.29236  0.10353  1
