CIF file written using JARVIS-Tools package.
data_Na3CoO3
_symmetry_space_group_name_H-M  'P4_2/mnm'
_cell_length_a       8.94206
_cell_length_b       4.54664
_cell_length_c       8.94164
_cell_angle_alpha    90
_cell_angle_beta     90.0007
_cell_angle_gamma    90

_symmetry_Int_Tables_number  136
_chemical_formula_structural  Na3CoO3
_chemical_formula_sum  Na2Co4O2
_cell_volume  363.53467376373095
_cell_formula_units_Z  4
loop_
  _symmetry_equiv_pos_site_id
 _symmetry_equiv_pos_as_xyz
 1  'x, y, z'
loop_
 _atom_site_type_symbol
 _atom_site_label
 _atom_site_symmetry_multiplicity
 _atom_site_fract_x
 _atom_site_fract_y
 _atom_site_fract_z
 _atom_site_fract_occupancy
 Co  Co1  1  0.38429  0.50000  0.38430  1
 Co  Co2  1  0.88430  0.00000  0.11569  1
 Co  Co3  1  0.61568  0.50000  0.61568  1
 Co  Co4  1  0.11569  0.00000  0.88431  1
 Na  Na1  1  0.13330  0.00000  0.38108  1
 Na  Na2  1  0.11896  0.50000  0.63330  1
 Na  Na3  1  0.14053  0.50000  0.14055  1
 Na  Na4  1  0.35947  0.00000  0.64056  1
 Na  Na5  1  0.86671  0.00000  0.61892  1
 Na  Na6  1  0.36670  0.50000  0.88112  1
 Na  Na7  1  0.63331  0.50000  0.11897  1
 Na  Na8  1  0.61891  0.00000  0.86672  1
 Na  Na9  1  0.64055  0.00000  0.35946  1
 Na  Na10  1  0.85945  0.50000  0.85944  1
 Na  Na11  1  0.88113  0.50000  0.36671  1
 Na  Na12  1  0.38110  0.00000  0.13329  1
 O  O1  1  0.18329  0.50000  0.39272  1
 O  O2  1  0.31669  0.00000  0.89273  1
 O  O3  1  0.39271  0.50000  0.18328  1
 O  O4  1  0.40542  0.50000  0.59457  1
 O  O5  1  0.59455  0.50000  0.40542  1
 O  O6  1  0.81669  0.50000  0.60726  1
 O  O7  1  0.68329  0.00000  0.10728  1
 O  O8  1  0.89272  0.00000  0.31670  1
 O  O9  1  0.90543  0.00000  0.90542  1
 O  O10  1  0.10728  0.00000  0.68329  1
 O  O11  1  0.60726  0.50000  0.81669  1
 O  O12  1  0.09456  0.00000  0.09457  1
