CIF file written using JARVIS-Tools package.
data_ZnBi4O8
_symmetry_space_group_name_H-M  'P1'
_cell_length_a       3.636
_cell_length_b       7.05313
_cell_length_c       8.97164
_cell_angle_alpha    108.96
_cell_angle_beta     102.91
_cell_angle_gamma    106.301

_symmetry_Int_Tables_number  1
_chemical_formula_structural  ZnBi4O8
_chemical_formula_sum  ZnBi4O8
_cell_volume  195.9045180043177
_cell_formula_units_Z  1
loop_
  _symmetry_equiv_pos_site_id
 _symmetry_equiv_pos_as_xyz
 1  'x, y, z'
loop_
 _atom_site_type_symbol
 _atom_site_label
 _atom_site_symmetry_multiplicity
 _atom_site_fract_x
 _atom_site_fract_y
 _atom_site_fract_z
 _atom_site_fract_occupancy
 Bi  Bi1  1  0.32168  0.73208  0.94198  1
 Bi  Bi2  1  0.20689  0.08855  0.34701  1
 Bi  Bi3  1  0.70573  0.79014  0.58940  1
 Bi  Bi4  1  0.79663  0.44485  0.18241  1
 O  O1  1  0.36942  0.43086  0.34050  1
 O  O2  1  0.40213  0.94484  0.80514  1
 O  O3  1  0.61759  0.07665  0.18434  1
 O  O4  1  0.65307  0.56558  0.76759  1
 O  O5  1  0.91678  0.77072  0.10633  1
 O  O6  1  0.93530  0.13909  0.61953  1
 O  O7  1  0.12805  0.42001  0.96523  1
 O  O8  1  0.10093  0.77032  0.41491  1
 Zn  Zn1  1  0.57391  0.25694  0.75953  1
