CIF file written using JARVIS-Tools package.
data_Li2S
_symmetry_space_group_name_H-M  'Pnma'
_cell_length_a       3.78686
_cell_length_b       6.26951
_cell_length_c       7.19842
_cell_angle_alpha    90
_cell_angle_beta     90
_cell_angle_gamma    90

_symmetry_Int_Tables_number  62
_chemical_formula_structural  Li2S
_chemical_formula_sum  Li8S4
_cell_volume  170.90314348419017
_cell_formula_units_Z  4
loop_
  _symmetry_equiv_pos_site_id
 _symmetry_equiv_pos_as_xyz
 1  'x, y, z'
loop_
 _atom_site_type_symbol
 _atom_site_label
 _atom_site_symmetry_multiplicity
 _atom_site_fract_x
 _atom_site_fract_y
 _atom_site_fract_z
 _atom_site_fract_occupancy
 Li  Li1  1  0.25000  0.85906  0.07194  1
 Li  Li2  1  0.75000  0.14094  0.92806  1
 Li  Li3  1  0.25000  0.35906  0.42806  1
 Li  Li4  1  0.75000  0.64094  0.57194  1
 Li  Li5  1  0.75000  0.02126  0.33540  1
 Li  Li6  1  0.25000  0.97874  0.66460  1
 Li  Li7  1  0.75000  0.52126  0.16460  1
 Li  Li8  1  0.25000  0.47874  0.83540  1
 S  S1  1  0.25000  0.24520  0.10996  1
 S  S2  1  0.75000  0.75480  0.89004  1
 S  S3  1  0.25000  0.74520  0.39004  1
 S  S4  1  0.75000  0.25480  0.60996  1
