CIF file written using JARVIS-Tools package.
data_V2ZnO4
_symmetry_space_group_name_H-M  'Imma'
_cell_length_a       6.02029
_cell_length_b       6.0203
_cell_length_c       5.89723
_cell_angle_alpha    60.674
_cell_angle_beta     60.674
_cell_angle_gamma    59.6352

_symmetry_Int_Tables_number  74
_chemical_formula_structural  V2ZnO4
_chemical_formula_sum  V4Zn2O8
_cell_volume  152.2241850842624
_cell_formula_units_Z  2
loop_
  _symmetry_equiv_pos_site_id
 _symmetry_equiv_pos_as_xyz
 1  'x, y, z'
loop_
 _atom_site_type_symbol
 _atom_site_label
 _atom_site_symmetry_multiplicity
 _atom_site_fract_x
 _atom_site_fract_y
 _atom_site_fract_z
 _atom_site_fract_occupancy
 O  O1  1  0.38758  0.38758  0.36613  1
 O  O2  1  0.38814  0.86755  0.37216  1
 O  O3  1  0.38758  0.38758  0.85870  1
 O  O4  1  0.86755  0.38814  0.37216  1
 O  O5  1  0.38245  0.86186  0.87784  1
 O  O6  1  0.86186  0.38245  0.87784  1
 O  O7  1  0.86242  0.86242  0.39130  1
 O  O8  1  0.86242  0.86242  0.88387  1
 V  V1  1  0.99577  0.99577  0.00423  1
 V  V2  1  0.25423  0.25423  0.24577  1
 V  V3  1  0.62500  0.62500  0.12500  1
 V  V4  1  0.62500  0.62500  0.62500  1
 Zn  Zn1  1  0.12500  0.62500  0.62500  1
 Zn  Zn2  1  0.62500  0.12500  0.62500  1
