CIF file written using JARVIS-Tools package.
data_Ce2Dy2O7
_symmetry_space_group_name_H-M  'P-4m2'
_cell_length_a       3.83451
_cell_length_b       3.83451
_cell_length_c       10.8391
_cell_angle_alpha    90
_cell_angle_beta     90
_cell_angle_gamma    90

_symmetry_Int_Tables_number  115
_chemical_formula_structural  Ce2Dy2O7
_chemical_formula_sum  Ce2Dy2O7
_cell_volume  159.37275849015487
_cell_formula_units_Z  1
loop_
  _symmetry_equiv_pos_site_id
 _symmetry_equiv_pos_as_xyz
 1  'x, y, z'
loop_
 _atom_site_type_symbol
 _atom_site_label
 _atom_site_symmetry_multiplicity
 _atom_site_fract_x
 _atom_site_fract_y
 _atom_site_fract_z
 _atom_site_fract_occupancy
 Ce  Ce1  1  0.00000  0.00000  0.49866  1
 Ce  Ce2  1  0.50000  0.50000  0.75134  1
 Dy  Dy1  1  0.00000  0.00000  0.98635  1
 Dy  Dy2  1  0.50000  0.50000  0.26365  1
 O  O1  1  0.00000  0.50000  0.12500  1
 O  O2  1  0.00000  0.50000  0.38330  1
 O  O3  1  0.50000  0.00000  0.35766  1
 O  O4  1  0.00000  0.50000  0.62500  1
 O  O5  1  0.50000  0.00000  0.62500  1
 O  O6  1  0.00000  0.50000  0.86670  1
 O  O7  1  0.50000  0.00000  0.89234  1
