CIF file written using JARVIS-Tools package.
data_Sm2Ti2S2O5
_symmetry_space_group_name_H-M  'I4/mmm'
_cell_length_a       3.83228
_cell_length_b       3.83228
_cell_length_c       11.9129
_cell_angle_alpha    99.2559
_cell_angle_beta     99.2559
_cell_angle_gamma    90.0001

_symmetry_Int_Tables_number  139
_chemical_formula_structural  Sm2Ti2S2O5
_chemical_formula_sum  Sm2Ti2S2O5
_cell_volume  170.3702344188026
_cell_formula_units_Z  1
loop_
  _symmetry_equiv_pos_site_id
 _symmetry_equiv_pos_as_xyz
 1  'x, y, z'
loop_
 _atom_site_type_symbol
 _atom_site_label
 _atom_site_symmetry_multiplicity
 _atom_site_fract_x
 _atom_site_fract_y
 _atom_site_fract_z
 _atom_site_fract_occupancy
 O  O1  1  0.40189  0.90189  0.80379  1
 O  O2  1  0.90189  0.40189  0.80379  1
 O  O3  1  0.59811  0.09811  0.19621  1
 O  O4  1  0.09811  0.59811  0.19621  1
 O  O5  1  0.50000  0.50000  -0.00000  1
 S  S1  1  0.29543  0.29543  0.59086  1
 S  S2  1  0.70457  0.70457  0.40914  1
 Sm  Sm1  1  0.83358  0.83358  0.66715  1
 Sm  Sm2  1  0.16642  0.16642  0.33285  1
 Ti  Ti1  1  0.42189  0.42189  0.84378  1
 Ti  Ti2  1  0.57811  0.57811  0.15622  1
