CIF file written using JARVIS-Tools package.
data_Na3FeO3
_symmetry_space_group_name_H-M  'Cc'
_cell_length_a       6.14362
_cell_length_b       8.51267
_cell_length_c       8.51266
_cell_angle_alpha    77.5219
_cell_angle_beta     69.5206
_cell_angle_gamma    69.5206

_symmetry_Int_Tables_number  9
_chemical_formula_structural  Na3FeO3
_chemical_formula_sum  Na2Fe4O2
_cell_volume  388.4728052019661
_cell_formula_units_Z  4
loop_
  _symmetry_equiv_pos_site_id
 _symmetry_equiv_pos_as_xyz
 1  'x, y, z'
loop_
 _atom_site_type_symbol
 _atom_site_label
 _atom_site_symmetry_multiplicity
 _atom_site_fract_x
 _atom_site_fract_y
 _atom_site_fract_z
 _atom_site_fract_occupancy
 Fe  Fe1  1  0.53146  0.12309  0.59911  1
 Fe  Fe2  1  0.95591  0.35462  0.87741  1
 Fe  Fe3  1  0.03146  0.59911  0.12309  1
 Fe  Fe4  1  0.45591  0.87741  0.35462  1
 Na  Na1  1  0.01730  0.82610  0.35009  1
 Na  Na2  1  0.44841  0.52358  0.43711  1
 Na  Na3  1  0.94841  0.43711  0.52358  1
 Na  Na4  1  0.50187  0.63383  0.06018  1
 Na  Na5  1  0.38146  0.25157  0.20735  1
 Na  Na6  1  0.46835  0.77184  0.72131  1
 Na  Na7  1  0.00187  0.06018  0.63383  1
 Na  Na8  1  0.22282  0.02144  0.96148  1
 Na  Na9  1  0.96835  0.72131  0.77184  1
 Na  Na10  1  0.88146  0.20735  0.25157  1
 Na  Na11  1  0.51730  0.35009  0.82610  1
 Na  Na12  1  0.72282  0.96148  0.02144  1
 O  O1  1  0.76877  0.21744  0.01243  1
 O  O2  1  0.13241  0.77323  0.96948  1
 O  O3  1  0.63241  0.96948  0.77323  1
 O  O4  1  0.25267  0.78739  0.54307  1
 O  O5  1  0.20307  0.53312  0.28252  1
 O  O6  1  0.70307  0.28252  0.53312  1
 O  O7  1  0.62126  0.01114  0.39854  1
 O  O8  1  0.12126  0.39854  0.01114  1
 O  O9  1  0.68681  0.68838  0.22801  1
 O  O10  1  0.75267  0.54307  0.78739  1
 O  O11  1  0.18681  0.22801  0.68838  1
 O  O12  1  0.26877  0.01243  0.21744  1
