CIF file written using JARVIS-Tools package.
data_Rb2Se3
_symmetry_space_group_name_H-M  'Cmc2_1'
_cell_length_a       6.70973
_cell_length_b       6.70973
_cell_length_c       7.8404
_cell_angle_alpha    90
_cell_angle_beta     90
_cell_angle_gamma    109.036

_symmetry_Int_Tables_number  36
_chemical_formula_structural  Rb2Se3
_chemical_formula_sum  Rb4Se6
_cell_volume  333.67486922923655
_cell_formula_units_Z  2
loop_
  _symmetry_equiv_pos_site_id
 _symmetry_equiv_pos_as_xyz
 1  'x, y, z'
loop_
 _atom_site_type_symbol
 _atom_site_label
 _atom_site_symmetry_multiplicity
 _atom_site_fract_x
 _atom_site_fract_y
 _atom_site_fract_z
 _atom_site_fract_occupancy
 Rb  Rb1  1  0.41949  0.58051  0.82765  1
 Rb  Rb2  1  0.58051  0.41949  0.32765  1
 Rb  Rb3  1  0.90271  0.09729  0.54803  1
 Rb  Rb4  1  0.09729  0.90271  0.04803  1
 Se  Se1  1  0.40589  0.08197  0.67603  1
 Se  Se2  1  0.59411  0.91803  0.17603  1
 Se  Se3  1  0.91803  0.59411  0.67603  1
 Se  Se4  1  0.08197  0.40589  0.17603  1
 Se  Se5  1  0.78822  0.21178  -0.00473  1
 Se  Se6  1  0.21178  0.78822  0.49527  1
