CIF file written using JARVIS-Tools package.
data_DyHg3
_symmetry_space_group_name_H-M  'P6_3/mmc'
_cell_length_a       6.61874
_cell_length_b       6.61874
_cell_length_c       4.99244
_cell_angle_alpha    90
_cell_angle_beta     90
_cell_angle_gamma    120

_symmetry_Int_Tables_number  194
_chemical_formula_structural  DyHg3
_chemical_formula_sum  Dy2Hg6
_cell_volume  189.40653204587008
_cell_formula_units_Z  2
loop_
  _symmetry_equiv_pos_site_id
 _symmetry_equiv_pos_as_xyz
 1  'x, y, z'
loop_
 _atom_site_type_symbol
 _atom_site_label
 _atom_site_symmetry_multiplicity
 _atom_site_fract_x
 _atom_site_fract_y
 _atom_site_fract_z
 _atom_site_fract_occupancy
 Dy  Dy1  1  0.33333  0.66667  0.75000  1
 Dy  Dy2  1  0.66667  0.33333  0.25000  1
 Hg  Hg1  1  0.16714  0.33428  0.25000  1
 Hg  Hg2  1  0.66572  0.83286  0.25000  1
 Hg  Hg3  1  0.16714  0.83286  0.25000  1
 Hg  Hg4  1  0.83286  0.66572  0.75000  1
 Hg  Hg5  1  0.33428  0.16714  0.75000  1
 Hg  Hg6  1  0.83286  0.16714  0.75000  1
