CIF file written using JARVIS-Tools package.
data_LiMnBO4
_symmetry_space_group_name_H-M  'Pnma'
_cell_length_a       4.43391
_cell_length_b       5.47242
_cell_length_c       9.40256
_cell_angle_alpha    90
_cell_angle_beta     90
_cell_angle_gamma    90

_symmetry_Int_Tables_number  62
_chemical_formula_structural  LiMnBO4
_chemical_formula_sum  Li4Mn4B4O6
_cell_volume  228.14588046635163
_cell_formula_units_Z  4
loop_
  _symmetry_equiv_pos_site_id
 _symmetry_equiv_pos_as_xyz
 1  'x, y, z'
loop_
 _atom_site_type_symbol
 _atom_site_label
 _atom_site_symmetry_multiplicity
 _atom_site_fract_x
 _atom_site_fract_y
 _atom_site_fract_z
 _atom_site_fract_occupancy
 B  B1  1  0.93804  0.75000  0.59076  1
 B  B2  1  0.43804  0.25000  0.90924  1
 B  B3  1  0.06196  0.25000  0.40924  1
 B  B4  1  0.56196  0.75000  0.09076  1
 Li  Li1  1  0.00000  0.00000  0.00000  1
 Li  Li2  1  0.50000  0.50000  0.50000  1
 Li  Li3  1  0.00000  0.50000  0.00000  1
 Li  Li4  1  0.50000  0.00000  0.50000  1
 Mn  Mn1  1  0.51057  0.25000  0.22944  1
 Mn  Mn2  1  0.48943  0.75000  0.77056  1
 Mn  Mn3  1  0.01057  0.75000  0.27056  1
 Mn  Mn4  1  0.98943  0.25000  0.72944  1
 O  O1  1  0.74429  0.25000  0.39722  1
 O  O2  1  0.27539  0.03900  0.83021  1
 O  O3  1  0.77539  0.96100  0.66979  1
 O  O4  1  0.18092  0.25000  0.55345  1
 O  O5  1  0.75571  0.25000  0.89722  1
 O  O6  1  0.31908  0.25000  0.05345  1
 O  O7  1  0.22461  0.03900  0.33021  1
 O  O8  1  0.25571  0.75000  0.60278  1
 O  O9  1  0.72461  0.53900  0.16979  1
 O  O10  1  0.77539  0.53900  0.66979  1
 O  O11  1  0.81908  0.75000  0.44655  1
 O  O12  1  0.68092  0.75000  0.94655  1
 O  O13  1  0.27539  0.46100  0.83021  1
 O  O14  1  0.24429  0.75000  0.10278  1
 O  O15  1  0.22461  0.46100  0.33021  1
 O  O16  1  0.72461  0.96100  0.16979  1
