CIF file written using JARVIS-Tools package.
data_LiMnF4
_symmetry_space_group_name_H-M  'P-1'
_cell_length_a       6.15784
_cell_length_b       7.97387
_cell_length_c       4.80422
_cell_angle_alpha    101
_cell_angle_beta     109.97
_cell_angle_gamma    129.512

_symmetry_Int_Tables_number  2
_chemical_formula_structural  LiMnF4
_chemical_formula_sum  Li2Mn2F8
_cell_volume  141.3854378559761
_cell_formula_units_Z  2
loop_
  _symmetry_equiv_pos_site_id
 _symmetry_equiv_pos_as_xyz
 1  'x, y, z'
loop_
 _atom_site_type_symbol
 _atom_site_label
 _atom_site_symmetry_multiplicity
 _atom_site_fract_x
 _atom_site_fract_y
 _atom_site_fract_z
 _atom_site_fract_occupancy
 F  F1  1  0.18467  0.88786  0.44952  1
 F  F2  1  0.31444  0.11209  0.05123  1
 F  F3  1  0.58621  0.65274  0.29648  1
 F  F4  1  0.41299  0.34725  0.70431  1
 F  F5  1  0.08621  0.65274  -0.20346  1
 F  F6  1  0.91294  0.34726  0.20431  1
 F  F7  1  0.81454  0.11215  0.55133  1
 F  F8  1  0.68469  0.88789  -0.05042  1
 Li  Li1  1  0.74959  0.50000  0.25029  1
 Li  Li2  1  0.24958  0.50000  0.75053  1
 Mn  Mn1  1  0.49958  0.00000  0.00043  1
 Mn  Mn2  1  -0.00040  0.00000  0.50039  1
