CIF file written using JARVIS-Tools package.
data_BaHBrO
_symmetry_space_group_name_H-M  'Pnma'
_cell_length_a       4.40276
_cell_length_b       7.59896
_cell_length_c       10.3901
_cell_angle_alpha    90
_cell_angle_beta     90
_cell_angle_gamma    90

_symmetry_Int_Tables_number  62
_chemical_formula_structural  BaHBrO
_chemical_formula_sum  Ba4H4Br4O4
_cell_volume  347.61454307895826
_cell_formula_units_Z  4
loop_
  _symmetry_equiv_pos_site_id
 _symmetry_equiv_pos_as_xyz
 1  'x, y, z'
loop_
 _atom_site_type_symbol
 _atom_site_label
 _atom_site_symmetry_multiplicity
 _atom_site_fract_x
 _atom_site_fract_y
 _atom_site_fract_z
 _atom_site_fract_occupancy
 Ba  Ba1  1  0.75000  0.30311  0.40516  1
 Ba  Ba2  1  0.75000  0.80311  0.09484  1
 Ba  Ba3  1  0.25000  0.69689  0.59484  1
 Ba  Ba4  1  0.25000  0.19689  0.90516  1
 Br  Br1  1  0.25000  0.46709  0.17599  1
 Br  Br2  1  0.25000  0.96709  0.32401  1
 Br  Br3  1  0.75000  0.53291  0.82401  1
 Br  Br4  1  0.75000  0.03291  0.67599  1
 H  H1  1  0.75000  0.24547  0.09803  1
 H  H2  1  0.75000  0.74547  0.40197  1
 H  H3  1  0.25000  0.75453  0.90197  1
 H  H4  1  0.25000  0.25453  0.59803  1
 O  O1  1  0.75000  0.14207  0.04218  1
 O  O2  1  0.75000  0.64207  0.45782  1
 O  O3  1  0.25000  0.85793  0.95782  1
 O  O4  1  0.25000  0.35793  0.54218  1
