CIF file written using JARVIS-Tools package.
data_CuAs2Pb6Cl7O6
_symmetry_space_group_name_H-M  'R3'
_cell_length_a       8.07886
_cell_length_b       8.07885
_cell_length_c       8.07886
_cell_angle_alpha    76.0043
_cell_angle_beta     76.0044
_cell_angle_gamma    76.0043

_symmetry_Int_Tables_number  146
_chemical_formula_structural  CuAs2Pb6Cl7O6
_chemical_formula_sum  CuAs2Pb6Cl7O6
_cell_volume  486.9432133350618
_cell_formula_units_Z  1
loop_
  _symmetry_equiv_pos_site_id
 _symmetry_equiv_pos_as_xyz
 1  'x, y, z'
loop_
 _atom_site_type_symbol
 _atom_site_label
 _atom_site_symmetry_multiplicity
 _atom_site_fract_x
 _atom_site_fract_y
 _atom_site_fract_z
 _atom_site_fract_occupancy
 As  As1  1  0.24162  0.24162  0.24162  1
 As  As2  1  0.76434  0.76434  0.76434  1
 Cl  Cl1  1  0.54870  0.38368  0.83219  1
 Cl  Cl2  1  0.38368  0.83219  0.54870  1
 Cl  Cl3  1  0.00167  0.00167  0.00167  1
 Cl  Cl4  1  0.44779  0.63562  0.14952  1
 Cl  Cl5  1  0.14952  0.44779  0.63562  1
 Cl  Cl6  1  0.63562  0.14952  0.44779  1
 Cl  Cl7  1  0.83219  0.54870  0.38368  1
 Cu  Cu1  1  0.62578  0.62578  0.62578  1
 O  O1  1  0.64651  0.95199  0.85469  1
 O  O2  1  0.85469  0.64651  0.95199  1
 O  O3  1  0.06481  0.12960  0.36125  1
 O  O4  1  0.12960  0.36125  0.06481  1
 O  O5  1  0.36125  0.06481  0.12960  1
 O  O6  1  0.95199  0.85469  0.64651  1
 Pb  Pb1  1  0.82698  0.35981  0.12341  1
 Pb  Pb2  1  0.63399  0.88064  0.16311  1
 Pb  Pb3  1  0.35981  0.12341  0.82698  1
 Pb  Pb4  1  0.16311  0.63399  0.88064  1
 Pb  Pb5  1  0.12341  0.82698  0.35981  1
 Pb  Pb6  1  0.88064  0.16311  0.63399  1
