CIF file written using JARVIS-Tools package.
data_SmIO
_symmetry_space_group_name_H-M  'R-3m'
_cell_length_a       4.00593
_cell_length_b       11.0626
_cell_length_c       4.00593
_cell_angle_alpha    100.431
_cell_angle_beta     60.0001
_cell_angle_gamma    100.431

_symmetry_Int_Tables_number  166
_chemical_formula_structural  SmIO
_chemical_formula_sum  Sm2I2O2
_cell_volume  150.345335814327
_cell_formula_units_Z  2
loop_
  _symmetry_equiv_pos_site_id
 _symmetry_equiv_pos_as_xyz
 1  'x, y, z'
loop_
 _atom_site_type_symbol
 _atom_site_label
 _atom_site_symmetry_multiplicity
 _atom_site_fract_x
 _atom_site_fract_y
 _atom_site_fract_z
 _atom_site_fract_occupancy
 I  I1  1  0.61265  0.83796  0.61265  1
 I  I2  1  0.38735  0.16204  0.38735  1
 O  O1  1  0.13957  0.41871  0.13957  1
 O  O2  1  0.86043  0.58129  0.86043  1
 Sm  Sm1  1  0.21135  0.63405  0.21135  1
 Sm  Sm2  1  0.78865  0.36595  0.78865  1
