CIF file written using JARVIS-Tools package.
data_MnSb3P4O16
_symmetry_space_group_name_H-M  'Pm'
_cell_length_a       4.93771
_cell_length_b       6.58148
_cell_length_c       9.82097
_cell_angle_alpha    90
_cell_angle_beta     96.2803
_cell_angle_gamma    90

_symmetry_Int_Tables_number  6
_chemical_formula_structural  MnSb3P4O16
_chemical_formula_sum  MnSb3P4O6
_cell_volume  317.2410101748798
_cell_formula_units_Z  1
loop_
  _symmetry_equiv_pos_site_id
 _symmetry_equiv_pos_as_xyz
 1  'x, y, z'
loop_
 _atom_site_type_symbol
 _atom_site_label
 _atom_site_symmetry_multiplicity
 _atom_site_fract_x
 _atom_site_fract_y
 _atom_site_fract_z
 _atom_site_fract_occupancy
 Mn  Mn1  1  0.80664  0.50000  0.29443  1
 O  O1  1  0.08747  0.50000  0.43661  1
 O  O2  1  0.33160  0.31156  0.64195  1
 O  O3  1  0.33160  0.68844  0.64195  1
 O  O4  1  0.67777  0.19585  0.32693  1
 O  O5  1  0.45404  0.00000  0.90189  1
 O  O6  1  0.12196  0.31838  0.17679  1
 O  O7  1  0.12626  0.00000  0.36254  1
 O  O8  1  0.16287  0.50000  0.94854  1
 O  O9  1  0.87190  0.00000  0.06429  1
 O  O10  1  0.88270  0.82029  0.83139  1
 O  O11  1  0.88270  0.17971  0.83139  1
 O  O12  1  0.56259  0.50000  0.12673  1
 O  O13  1  0.88458  0.50000  0.65511  1
 O  O14  1  0.67777  0.80415  0.32693  1
 O  O15  1  0.12196  0.68162  0.17679  1
 O  O16  1  0.81512  0.00000  0.54758  1
 P  P1  1  0.81958  0.00000  0.39031  1
 P  P2  1  0.76463  0.00000  0.91262  1
 P  P3  1  0.24593  0.50000  0.10560  1
 P  P4  1  0.16348  0.50000  0.59356  1
 Sb  Sb1  1  0.76031  0.50000  0.84133  1
 Sb  Sb2  1  0.27030  0.00000  0.17506  1
 Sb  Sb3  1  0.17627  0.00000  0.68967  1
