CIF file written using JARVIS-Tools package.
data_ScMo3O8
_symmetry_space_group_name_H-M  'Cm'
_cell_length_a       4.84493
_cell_length_b       5.74001
_cell_length_c       5.74001
_cell_angle_alpha    119.622
_cell_angle_beta     89.7842
_cell_angle_gamma    90.218

_symmetry_Int_Tables_number  8
_chemical_formula_structural  ScMo3O8
_chemical_formula_sum  ScMo3O8
_cell_volume  138.76493790809621
_cell_formula_units_Z  1
loop_
  _symmetry_equiv_pos_site_id
 _symmetry_equiv_pos_as_xyz
 1  'x, y, z'
loop_
 _atom_site_type_symbol
 _atom_site_label
 _atom_site_symmetry_multiplicity
 _atom_site_fract_x
 _atom_site_fract_y
 _atom_site_fract_z
 _atom_site_fract_occupancy
 Mo  Mo1  1  0.74738  0.14800  0.85235  1
 Mo  Mo2  1  0.74338  0.69124  0.83704  1
 Mo  Mo3  1  0.74335  0.16331  0.30911  1
 O  O1  1  0.53041  0.00785  0.50759  1
 O  O2  1  0.95169  0.33234  0.66803  1
 O  O3  1  -0.00461  0.83240  0.66460  1
 O  O4  1  0.97587  0.83591  0.16445  1
 O  O5  1  0.53041  0.49274  0.99249  1
 O  O6  1  0.46050  -0.01322  0.01353  1
 O  O7  1  0.52221  0.50021  0.50012  1
 O  O8  1  0.99539  0.33575  0.16798  1
 Sc  Sc1  1  0.26492  0.67553  0.32479  1
