CIF file written using JARVIS-Tools package.
data_ThS2
_symmetry_space_group_name_H-M  'Pnma'
_cell_length_a       4.28982
_cell_length_b       7.29677
_cell_length_c       8.67214
_cell_angle_alpha    90
_cell_angle_beta     90
_cell_angle_gamma    90

_symmetry_Int_Tables_number  62
_chemical_formula_structural  ThS2
_chemical_formula_sum  Th4S8
_cell_volume  271.4542785767439
_cell_formula_units_Z  4
loop_
  _symmetry_equiv_pos_site_id
 _symmetry_equiv_pos_as_xyz
 1  'x, y, z'
loop_
 _atom_site_type_symbol
 _atom_site_label
 _atom_site_symmetry_multiplicity
 _atom_site_fract_x
 _atom_site_fract_y
 _atom_site_fract_z
 _atom_site_fract_occupancy
 S  S1  1  0.75000  0.14015  0.07012  1
 S  S2  1  0.25000  0.85985  0.92988  1
 S  S3  1  0.75000  0.64015  0.42988  1
 S  S4  1  0.25000  0.35985  0.57012  1
 S  S5  1  0.75000  0.02895  0.66580  1
 S  S6  1  0.25000  0.97105  0.33420  1
 S  S7  1  0.75000  0.52895  0.83420  1
 S  S8  1  0.25000  0.47105  0.16580  1
 Th  Th1  1  0.75000  0.75132  0.11940  1
 Th  Th2  1  0.25000  0.24868  0.88060  1
 Th  Th3  1  0.75000  0.25132  0.38060  1
 Th  Th4  1  0.25000  0.74868  0.61940  1
