CIF file written using JARVIS-Tools package.
data_VRhO4
_symmetry_space_group_name_H-M  'I4_1md'
_cell_length_a       5.46022
_cell_length_b       5.46022
_cell_length_c       5.46022
_cell_angle_alpha    73.4984
_cell_angle_beta     106.502
_cell_angle_gamma    64.4108

_symmetry_Int_Tables_number  109
_chemical_formula_structural  VRhO4
_chemical_formula_sum  V2Rh2O8
_cell_volume  124.23375798363918
_cell_formula_units_Z  2
loop_
  _symmetry_equiv_pos_site_id
 _symmetry_equiv_pos_as_xyz
 1  'x, y, z'
loop_
 _atom_site_type_symbol
 _atom_site_label
 _atom_site_symmetry_multiplicity
 _atom_site_fract_x
 _atom_site_fract_y
 _atom_site_fract_z
 _atom_site_fract_occupancy
 O  O1  1  0.57523  0.23426  0.80949  1
 O  O2  1  0.02677  0.77047  0.79724  1
 O  O3  1  0.01574  0.29375  0.69051  1
 O  O4  1  0.47953  0.81771  0.70276  1
 O  O5  1  0.01574  0.67477  0.30949  1
 O  O6  1  0.47953  0.22323  0.29724  1
 O  O7  1  0.95625  0.23426  0.19051  1
 O  O8  1  0.43229  0.77047  0.20276  1
 Rh  Rh1  1  0.74522  0.75478  0.50000  1
 Rh  Rh2  1  0.49522  0.50478  0.00000  1
 V  V1  1  0.26423  0.23577  0.50000  1
 V  V2  1  0.01423  0.98577  0.00000  1
