CIF file written using JARVIS-Tools package.
data_SrH2O3
_symmetry_space_group_name_H-M  'Pmc2_1'
_cell_length_a       5.31577
_cell_length_b       3.72891
_cell_length_c       6.97833
_cell_angle_alpha    90
_cell_angle_beta     89.9996
_cell_angle_gamma    90

_symmetry_Int_Tables_number  26
_chemical_formula_structural  SrH2O3
_chemical_formula_sum  Sr2H4O6
_cell_volume  138.32486522989123
_cell_formula_units_Z  2
loop_
  _symmetry_equiv_pos_site_id
 _symmetry_equiv_pos_as_xyz
 1  'x, y, z'
loop_
 _atom_site_type_symbol
 _atom_site_label
 _atom_site_symmetry_multiplicity
 _atom_site_fract_x
 _atom_site_fract_y
 _atom_site_fract_z
 _atom_site_fract_occupancy
 H  H1  1  0.97802  0.21321  0.12673  1
 H  H2  1  0.97802  0.78679  0.12673  1
 H  H3  1  0.02198  0.78678  0.62673  1
 H  H4  1  0.02198  0.21322  0.62673  1
 O  O1  1  0.86265  0.00000  0.10197  1
 O  O2  1  0.13735  0.00000  0.60198  1
 O  O3  1  0.18622  0.50000  0.19756  1
 O  O4  1  0.81378  0.50000  0.69755  1
 O  O5  1  0.59066  0.50000  0.56261  1
 O  O6  1  0.40933  0.50000  0.06261  1
 Sr  Sr1  1  0.46126  0.00000  0.32071  1
 Sr  Sr2  1  0.53874  0.00000  0.82071  1
