CIF file written using JARVIS-Tools package.
data_Rb2S3
_symmetry_space_group_name_H-M  'Cmc2_1'
_cell_length_a       6.41757
_cell_length_b       6.41758
_cell_length_c       7.63464
_cell_angle_alpha    90
_cell_angle_beta     90
_cell_angle_gamma    108.684

_symmetry_Int_Tables_number  36
_chemical_formula_structural  Rb2S3
_chemical_formula_sum  Rb4S6
_cell_volume  297.8637657781894
_cell_formula_units_Z  2
loop_
  _symmetry_equiv_pos_site_id
 _symmetry_equiv_pos_as_xyz
 1  'x, y, z'
loop_
 _atom_site_type_symbol
 _atom_site_label
 _atom_site_symmetry_multiplicity
 _atom_site_fract_x
 _atom_site_fract_y
 _atom_site_fract_z
 _atom_site_fract_occupancy
 Rb  Rb1  1  0.42755  0.57245  0.81330  1
 Rb  Rb2  1  0.57245  0.42755  0.31330  1
 Rb  Rb3  1  0.89566  0.10434  0.53872  1
 Rb  Rb4  1  0.10434  0.89566  0.03872  1
 S  S1  1  0.38709  0.06413  0.65338  1
 S  S2  1  0.61291  0.93587  0.15338  1
 S  S3  1  0.93587  0.61291  0.65338  1
 S  S4  1  0.06413  0.38709  0.15338  1
 S  S5  1  0.79429  0.20571  -0.00138  1
 S  S6  1  0.20571  0.79429  0.49862  1
