CIF file written using JARVIS-Tools package.
data_V2H
_symmetry_space_group_name_H-M  'I4_1/amd'
_cell_length_a       5.33392
_cell_length_b       5.33392
_cell_length_c       5.33392
_cell_angle_alpha    113.011
_cell_angle_beta     113.011
_cell_angle_gamma    102.603

_symmetry_Int_Tables_number  141
_chemical_formula_structural  V2H
_chemical_formula_sum  V8H4
_cell_volume  115.5819179961366
_cell_formula_units_Z  4
loop_
  _symmetry_equiv_pos_site_id
 _symmetry_equiv_pos_as_xyz
 1  'x, y, z'
loop_
 _atom_site_type_symbol
 _atom_site_label
 _atom_site_symmetry_multiplicity
 _atom_site_fract_x
 _atom_site_fract_y
 _atom_site_fract_z
 _atom_site_fract_occupancy
 H  H1  1  0.00000  0.50000  -0.00000  1
 H  H2  1  0.50000  0.00000  0.50000  1
 H  H3  1  0.00000  0.00000  0.00000  1
 H  H4  1  -0.00000  -0.00000  0.50000  1
 V  V1  1  0.73020  0.73094  0.50074  1
 V  V2  1  0.73094  0.73020  0.00074  1
 V  V3  1  0.22946  0.73020  0.49926  1
 V  V4  1  0.73020  0.22946  0.99926  1
 V  V5  1  0.26980  0.26906  0.49926  1
 V  V6  1  0.26906  0.26980  0.99926  1
 V  V7  1  0.77054  0.26980  0.50074  1
 V  V8  1  0.26980  0.77054  0.00074  1
