CIF file written using JARVIS-Tools package.
data_DyNi2Ge2
_symmetry_space_group_name_H-M  'I4/mmm'
_cell_length_a       4.06419
_cell_length_b       4.06418
_cell_length_c       5.6731
_cell_angle_alpha    110.99
_cell_angle_beta     110.99
_cell_angle_gamma    90

_symmetry_Int_Tables_number  139
_chemical_formula_structural  DyNi2Ge2
_chemical_formula_sum  DyNi2Ge2
_cell_volume  80.7932798939621
_cell_formula_units_Z  1
loop_
  _symmetry_equiv_pos_site_id
 _symmetry_equiv_pos_as_xyz
 1  'x, y, z'
loop_
 _atom_site_type_symbol
 _atom_site_label
 _atom_site_symmetry_multiplicity
 _atom_site_fract_x
 _atom_site_fract_y
 _atom_site_fract_z
 _atom_site_fract_occupancy
 Dy  Dy1  1  0.00000  0.00000  0.00000  1
 Ge  Ge1  1  0.62843  0.62843  0.25685  1
 Ge  Ge2  1  0.37157  0.37157  0.74315  1
 Ni  Ni1  1  0.75000  0.25000  0.50000  1
 Ni  Ni2  1  0.25000  0.75000  0.50000  1
