CIF file written using JARVIS-Tools package.
data_NaVSiO4
_symmetry_space_group_name_H-M  'Cmcm'
_cell_length_a       5.03518
_cell_length_b       5.03517
_cell_length_c       6.63391
_cell_angle_alpha    90
_cell_angle_beta     90
_cell_angle_gamma    64.4416

_symmetry_Int_Tables_number  63
_chemical_formula_structural  NaVSiO4
_chemical_formula_sum  Na2V2Si2O8
_cell_volume  151.7316859593984
_cell_formula_units_Z  2
loop_
  _symmetry_equiv_pos_site_id
 _symmetry_equiv_pos_as_xyz
 1  'x, y, z'
loop_
 _atom_site_type_symbol
 _atom_site_label
 _atom_site_symmetry_multiplicity
 _atom_site_fract_x
 _atom_site_fract_y
 _atom_site_fract_z
 _atom_site_fract_occupancy
 Na  Na1  1  0.31757  0.31757  0.25000  1
 Na  Na2  1  0.68243  0.68243  0.75000  1
 O  O1  1  0.22219  0.22219  0.55565  1
 O  O2  1  0.22219  0.22219  0.94435  1
 O  O3  1  0.20382  0.70600  0.75000  1
 O  O4  1  0.29400  0.79618  0.25000  1
 O  O5  1  0.70600  0.20382  0.75000  1
 O  O6  1  0.79618  0.29400  0.25000  1
 O  O7  1  0.77781  0.77781  0.05565  1
 O  O8  1  0.77781  0.77781  0.44435  1
 Si  Si1  1  0.33847  0.33847  0.75000  1
 Si  Si2  1  0.66153  0.66153  0.25000  1
 V  V1  1  0.00000  0.00000  0.00000  1
 V  V2  1  0.00000  0.00000  0.50000  1
