CIF file written using JARVIS-Tools package.
data_Cr2SiO4
_symmetry_space_group_name_H-M  'Fddd'
_cell_length_a       5.75689
_cell_length_b       5.75689
_cell_length_c       6.30355
_cell_angle_alpha    102.751
_cell_angle_beta     102.751
_cell_angle_gamma    121.107

_symmetry_Int_Tables_number  70
_chemical_formula_structural  Cr2SiO4
_chemical_formula_sum  Cr4Si2O8
_cell_volume  159.8281071747277
_cell_formula_units_Z  2
loop_
  _symmetry_equiv_pos_site_id
 _symmetry_equiv_pos_as_xyz
 1  'x, y, z'
loop_
 _atom_site_type_symbol
 _atom_site_label
 _atom_site_symmetry_multiplicity
 _atom_site_fract_x
 _atom_site_fract_y
 _atom_site_fract_z
 _atom_site_fract_occupancy
 Cr  Cr1  1  0.77793  0.22207  0.75000  1
 Cr  Cr2  1  0.47207  0.52793  0.75000  1
 Cr  Cr3  1  0.22207  0.77793  0.25000  1
 Cr  Cr4  1  0.52793  0.47207  0.25000  1
 O  O1  1  0.26930  0.22385  0.90385  1
 O  O2  1  0.32001  0.86545  0.59615  1
 O  O3  1  0.77615  0.73070  0.59615  1
 O  O4  1  0.13455  0.67999  0.90385  1
 O  O5  1  0.73070  0.77615  0.09615  1
 O  O6  1  0.67999  0.13455  0.40385  1
 O  O7  1  0.86545  0.32001  0.09615  1
 O  O8  1  0.22385  0.26930  0.40385  1
 Si  Si1  1  0.12500  0.87500  0.75000  1
 Si  Si2  1  0.87500  0.12500  0.25000  1
