CIF file written using JARVIS-Tools package.
data_NaTaO3
_symmetry_space_group_name_H-M  'P4/mbm'
_cell_length_a       5.51518
_cell_length_b       5.51518
_cell_length_c       3.98558
_cell_angle_alpha    90
_cell_angle_beta     90
_cell_angle_gamma    90

_symmetry_Int_Tables_number  127
_chemical_formula_structural  NaTaO3
_chemical_formula_sum  Na2Ta2O6
_cell_volume  121.23027189491842
_cell_formula_units_Z  2
loop_
  _symmetry_equiv_pos_site_id
 _symmetry_equiv_pos_as_xyz
 1  'x, y, z'
loop_
 _atom_site_type_symbol
 _atom_site_label
 _atom_site_symmetry_multiplicity
 _atom_site_fract_x
 _atom_site_fract_y
 _atom_site_fract_z
 _atom_site_fract_occupancy
 Na  Na1  1  0.50000  0.00000  0.50000  1
 Na  Na2  1  0.00000  0.50000  0.50000  1
 O  O1  1  0.19625  0.69625  0.00000  1
 O  O2  1  0.69625  0.80375  0.00000  1
 O  O3  1  0.30375  0.19625  0.00000  1
 O  O4  1  0.80375  0.30375  0.00000  1
 O  O5  1  0.00000  0.00000  0.50000  1
 O  O6  1  0.50000  0.50000  0.50000  1
 Ta  Ta1  1  0.00000  0.00000  0.00000  1
 Ta  Ta2  1  0.50000  0.50000  0.00000  1
