CIF file written using JARVIS-Tools package.
data_Li2MnFeB2O6
_symmetry_space_group_name_H-M  'Cc'
_cell_length_a       5.18463
_cell_length_b       5.18463
_cell_length_c       10.1757
_cell_angle_alpha    89.7381
_cell_angle_beta     90.2619
_cell_angle_gamma    60.0933

_symmetry_Int_Tables_number  9
_chemical_formula_structural  Li2MnFeB2O6
_chemical_formula_sum  Li4Mn2Fe2B4O2
_cell_volume  237.09327905930013
_cell_formula_units_Z  2
loop_
  _symmetry_equiv_pos_site_id
 _symmetry_equiv_pos_as_xyz
 1  'x, y, z'
loop_
 _atom_site_type_symbol
 _atom_site_label
 _atom_site_symmetry_multiplicity
 _atom_site_fract_x
 _atom_site_fract_y
 _atom_site_fract_z
 _atom_site_fract_occupancy
 B  B1  1  0.33102  0.00174  0.62424  1
 B  B2  1  -0.00033  0.33594  0.87288  1
 B  B3  1  0.99826  0.66898  0.12424  1
 B  B4  1  0.66406  0.00033  0.37288  1
 Fe  Fe1  1  0.99639  0.32146  0.36697  1
 Fe  Fe2  1  0.67854  0.00361  0.86697  1
 Li  Li1  1  0.32708  0.65625  0.33356  1
 Li  Li2  1  0.66444  0.34601  0.08711  1
 Li  Li3  1  0.65399  0.33556  0.58711  1
 Li  Li4  1  0.34375  0.67292  0.83356  1
 Mn  Mn1  1  0.32924  0.00680  0.11533  1
 Mn  Mn2  1  0.99320  0.67076  0.61533  1
 O  O1  1  0.41354  0.98306  0.33935  1
 O  O2  1  0.72362  0.35538  0.88575  1
 O  O3  1  0.64462  0.27638  0.38575  1
 O  O4  1  0.35515  0.72565  0.63820  1
 O  O5  1  0.27435  0.64485  0.13820  1
 O  O6  1  0.01694  0.58646  0.83935  1
 O  O7  1  0.25779  0.06566  0.89747  1
 O  O8  1  0.06433  0.24750  0.58462  1
 O  O9  1  0.75250  0.93567  0.08462  1
 O  O10  1  0.96545  0.42287  0.15261  1
 O  O11  1  0.57713  0.03455  0.65261  1
 O  O12  1  0.93434  0.74221  0.39747  1
