CIF file written using JARVIS-Tools package.
data_InCuRh2
_symmetry_space_group_name_H-M  'Immm'
_cell_length_a       9.88162
_cell_length_b       9.57851
_cell_length_c       9.57851
_cell_angle_alpha    61.536
_cell_angle_beta     58.9476
_cell_angle_gamma    58.9476

_symmetry_Int_Tables_number  71
_chemical_formula_structural  InCuRh2
_chemical_formula_sum  InCuRh2
_cell_volume  637.4264472370138
_cell_formula_units_Z  1
loop_
  _symmetry_equiv_pos_site_id
 _symmetry_equiv_pos_as_xyz
 1  'x, y, z'
loop_
 _atom_site_type_symbol
 _atom_site_label
 _atom_site_symmetry_multiplicity
 _atom_site_fract_x
 _atom_site_fract_y
 _atom_site_fract_z
 _atom_site_fract_occupancy
 Cu  Cu1  1  0.00000  0.00000  0.00000  1
 In  In1  1  0.50000  0.00000  0.00000  1
 Rh  Rh1  1  0.75863  0.00000  -0.00000  1
 Rh  Rh2  1  0.24137  -0.00000  0.00000  1
