CIF file written using JARVIS-Tools package.
data_CrWO6
_symmetry_space_group_name_H-M  'P2_1/c'
_cell_length_a       4.98608
_cell_length_b       5.16656
_cell_length_c       8.72896
_cell_angle_alpha    90
_cell_angle_beta     124.697
_cell_angle_gamma    90

_symmetry_Int_Tables_number  14
_chemical_formula_structural  CrWO6
_chemical_formula_sum  Cr2W2O2
_cell_volume  184.8789976541084
_cell_formula_units_Z  2
loop_
  _symmetry_equiv_pos_site_id
 _symmetry_equiv_pos_as_xyz
 1  'x, y, z'
loop_
 _atom_site_type_symbol
 _atom_site_label
 _atom_site_symmetry_multiplicity
 _atom_site_fract_x
 _atom_site_fract_y
 _atom_site_fract_z
 _atom_site_fract_occupancy
 Cr  Cr1  1  0.50000  0.00000  0.00000  1
 Cr  Cr2  1  0.50000  0.50000  0.50000  1
 O  O1  1  0.74336  0.30529  0.44780  1
 O  O2  1  0.25664  0.80529  0.05220  1
 O  O3  1  0.25664  0.69471  0.55220  1
 O  O4  1  0.74336  0.19471  0.94780  1
 O  O5  1  0.36178  0.20865  0.55128  1
 O  O6  1  0.63822  0.70865  0.94872  1
 O  O7  1  0.63822  0.79135  0.44872  1
 O  O8  1  0.36178  0.29135  0.05128  1
 O  O9  1  0.15552  0.48089  0.25719  1
 O  O10  1  0.84448  0.98089  0.24281  1
 O  O11  1  0.15552  0.01911  0.75719  1
 O  O12  1  0.84448  0.51911  0.74281  1
 W  W1  1  -0.00000  0.00000  0.50000  1
 W  W2  1  0.00000  0.50000  0.00000  1
