CIF file written using JARVIS-Tools package.
data_Sm2Co12P7
_symmetry_space_group_name_H-M  'P-6'
_cell_length_a       9.07482
_cell_length_b       3.62046
_cell_length_c       9.07481
_cell_angle_alpha    90
_cell_angle_beta     120
_cell_angle_gamma    90

_symmetry_Int_Tables_number  174
_chemical_formula_structural  Sm2Co12P7
_chemical_formula_sum  Sm2Co2P7
_cell_volume  258.2088094301845
_cell_formula_units_Z  1
loop_
  _symmetry_equiv_pos_site_id
 _symmetry_equiv_pos_as_xyz
 1  'x, y, z'
loop_
 _atom_site_type_symbol
 _atom_site_label
 _atom_site_symmetry_multiplicity
 _atom_site_fract_x
 _atom_site_fract_y
 _atom_site_fract_z
 _atom_site_fract_occupancy
 Co  Co1  1  0.56615  0.00000  0.62560  1
 Co  Co2  1  0.76583  0.50000  0.86961  1
 Co  Co3  1  0.13039  0.50000  0.89622  1
 Co  Co4  1  0.10379  0.50000  0.23417  1
 Co  Co5  1  0.88072  0.00000  0.72886  1
 Co  Co6  1  0.27114  0.00000  0.15187  1
 Co  Co7  1  0.84814  0.00000  0.11927  1
 Co  Co8  1  0.94756  0.50000  0.56612  1
 Co  Co9  1  0.43389  0.50000  0.38145  1
 Co  Co10  1  0.37439  0.00000  0.94055  1
 Co  Co11  1  0.05945  0.00000  0.43384  1
 Co  Co12  1  0.61855  0.50000  0.05243  1
 P  P1  1  0.00000  0.00000  0.00000  1
 P  P2  1  0.89279  0.50000  0.29179  1
 P  P3  1  0.70820  0.50000  0.60099  1
 P  P4  1  0.59666  0.00000  0.89038  1
 P  P5  1  0.10962  0.00000  0.70628  1
 P  P6  1  0.29371  0.00000  0.40334  1
 P  P7  1  0.39901  0.50000  0.10721  1
 Sm  Sm1  1  0.66667  0.00000  0.33334  1
 Sm  Sm2  1  0.33333  0.50000  0.66667  1
