CIF file written using JARVIS-Tools package.
data_TaZn2SbO6
_symmetry_space_group_name_H-M  'P2_1/m'
_cell_length_a       5.47152
_cell_length_b       7.97702
_cell_length_c       5.53462
_cell_angle_alpha    90
_cell_angle_beta     92.7026
_cell_angle_gamma    90

_symmetry_Int_Tables_number  11
_chemical_formula_structural  TaZn2SbO6
_chemical_formula_sum  Ta2Zn4Sb2O2
_cell_volume  241.29816905079468
_cell_formula_units_Z  2
loop_
  _symmetry_equiv_pos_site_id
 _symmetry_equiv_pos_as_xyz
 1  'x, y, z'
loop_
 _atom_site_type_symbol
 _atom_site_label
 _atom_site_symmetry_multiplicity
 _atom_site_fract_x
 _atom_site_fract_y
 _atom_site_fract_z
 _atom_site_fract_occupancy
 O  O1  1  0.90858  0.25000  0.37512  1
 O  O2  1  0.67840  0.57229  0.36716  1
 O  O3  1  0.37869  0.25000  0.13169  1
 O  O4  1  0.32160  0.07229  0.63284  1
 O  O5  1  0.85821  0.42896  0.80884  1
 O  O6  1  0.14179  0.92896  0.19116  1
 O  O7  1  0.85821  0.07104  0.80884  1
 O  O8  1  0.62131  0.75000  0.86831  1
 O  O9  1  0.67840  0.92771  0.36716  1
 O  O10  1  0.09142  0.75000  0.62488  1
 O  O11  1  0.32160  0.42771  0.63284  1
 O  O12  1  0.14179  0.57104  0.19116  1
 Sb  Sb1  1  0.50000  0.00000  0.00000  1
 Sb  Sb2  1  0.50000  0.50000  0.00000  1
 Ta  Ta1  1  0.00000  0.00000  0.50000  1
 Ta  Ta2  1  0.00000  0.50000  0.50000  1
 Zn  Zn1  1  0.97777  0.75000  0.98614  1
 Zn  Zn2  1  0.02223  0.25000  0.01386  1
 Zn  Zn3  1  0.47994  0.75000  0.52271  1
 Zn  Zn4  1  0.52006  0.25000  0.47729  1
