CIF file written using JARVIS-Tools package.
data_Ag3PO4
_symmetry_space_group_name_H-M  'P-43n'
_cell_length_a       6.0479
_cell_length_b       6.0479
_cell_length_c       6.0479
_cell_angle_alpha    90
_cell_angle_beta     90
_cell_angle_gamma    90

_symmetry_Int_Tables_number  218
_chemical_formula_structural  Ag3PO4
_chemical_formula_sum  Ag6P2O8
_cell_volume  221.2148713486572
_cell_formula_units_Z  2
loop_
  _symmetry_equiv_pos_site_id
 _symmetry_equiv_pos_as_xyz
 1  'x, y, z'
loop_
 _atom_site_type_symbol
 _atom_site_label
 _atom_site_symmetry_multiplicity
 _atom_site_fract_x
 _atom_site_fract_y
 _atom_site_fract_z
 _atom_site_fract_occupancy
 Ag  Ag1  1  0.00000  0.50000  0.25000  1
 Ag  Ag2  1  0.00000  0.50000  0.75000  1
 Ag  Ag3  1  0.75000  0.00000  0.50000  1
 Ag  Ag4  1  0.50000  0.25000  0.00000  1
 Ag  Ag5  1  0.25000  0.00000  0.50000  1
 Ag  Ag6  1  0.50000  0.75000  0.00000  1
 O  O1  1  0.85080  0.85080  0.85080  1
 O  O2  1  0.64920  0.35080  0.64920  1
 O  O3  1  0.35080  0.64920  0.64920  1
 O  O4  1  0.64920  0.64920  0.35080  1
 O  O5  1  0.35080  0.35080  0.35080  1
 O  O6  1  0.14920  0.14920  0.85080  1
 O  O7  1  0.14920  0.85080  0.14920  1
 O  O8  1  0.85080  0.14920  0.14920  1
 P  P1  1  0.50000  0.50000  0.50000  1
 P  P2  1  0.00000  0.00000  0.00000  1
