CIF file written using JARVIS-Tools package.
data_Ca2TaSbO6
_symmetry_space_group_name_H-M  'P2_1/m'
_cell_length_a       5.68281
_cell_length_b       7.99576
_cell_length_c       5.93046
_cell_angle_alpha    90
_cell_angle_beta     90.7066
_cell_angle_gamma    90

_symmetry_Int_Tables_number  11
_chemical_formula_structural  Ca2TaSbO6
_chemical_formula_sum  Ca4Ta2Sb2O2
_cell_volume  269.4503480643483
_cell_formula_units_Z  2
loop_
  _symmetry_equiv_pos_site_id
 _symmetry_equiv_pos_as_xyz
 1  'x, y, z'
loop_
 _atom_site_type_symbol
 _atom_site_label
 _atom_site_symmetry_multiplicity
 _atom_site_fract_x
 _atom_site_fract_y
 _atom_site_fract_z
 _atom_site_fract_occupancy
 Ca  Ca1  1  0.48743  0.75000  0.44396  1
 Ca  Ca2  1  0.51257  0.25000  0.55604  1
 Ca  Ca3  1  0.00630  0.75000  0.94032  1
 Ca  Ca4  1  0.99370  0.25000  0.05968  1
 O  O1  1  0.66273  0.44206  0.28877  1
 O  O2  1  0.86585  0.75000  0.56448  1
 O  O3  1  0.33727  0.94206  0.71123  1
 O  O4  1  0.20868  0.55776  0.16685  1
 O  O5  1  0.79132  0.05776  0.83315  1
 O  O6  1  0.20868  0.94224  0.16685  1
 O  O7  1  0.13415  0.25000  0.43552  1
 O  O8  1  0.60300  0.75000  0.04338  1
 O  O9  1  0.79132  0.44224  0.83315  1
 O  O10  1  0.33727  0.55794  0.71123  1
 O  O11  1  0.66273  0.05794  0.28877  1
 O  O12  1  0.39700  0.25000  0.95662  1
 Sb  Sb1  1  -0.00000  0.00000  0.50000  1
 Sb  Sb2  1  -0.00000  0.50000  0.50000  1
 Ta  Ta1  1  0.50000  0.00000  -0.00000  1
 Ta  Ta2  1  0.50000  0.50000  -0.00000  1
