CIF file written using JARVIS-Tools package.
data_Li6CrO4
_symmetry_space_group_name_H-M  'P4_2/nmc'
_cell_length_a       4.52155
_cell_length_b       6.67827
_cell_length_c       6.67841
_cell_angle_alpha    89.999
_cell_angle_beta     89.997
_cell_angle_gamma    90.0003

_symmetry_Int_Tables_number  137
_chemical_formula_structural  Li6CrO4
_chemical_formula_sum  Li2Cr2O8
_cell_volume  201.66230080333665
_cell_formula_units_Z  2
loop_
  _symmetry_equiv_pos_site_id
 _symmetry_equiv_pos_as_xyz
 1  'x, y, z'
loop_
 _atom_site_type_symbol
 _atom_site_label
 _atom_site_symmetry_multiplicity
 _atom_site_fract_x
 _atom_site_fract_y
 _atom_site_fract_z
 _atom_site_fract_occupancy
 Cr  Cr1  1  0.25002  0.24999  0.25002  1
 Cr  Cr2  1  0.74998  0.75000  0.75000  1
 Li  Li1  1  0.25001  0.96524  0.53476  1
 Li  Li2  1  0.24999  0.53469  0.96530  1
 Li  Li3  1  0.32101  0.74999  0.25000  1
 Li  Li4  1  0.82101  0.74999  0.25001  1
 Li  Li5  1  0.24999  0.53472  0.53474  1
 Li  Li6  1  0.25000  0.96527  0.96529  1
 Li  Li7  1  0.74999  0.46529  0.03471  1
 Li  Li8  1  0.75000  0.46526  0.46528  1
 Li  Li9  1  0.67899  0.24998  0.75001  1
 Li  Li10  1  0.17899  0.24999  0.75000  1
 Li  Li11  1  0.75001  0.03474  0.46526  1
 Li  Li12  1  0.75000  0.03471  0.03473  1
 O  O1  1  0.43978  0.24999  0.97935  1
 O  O2  1  0.43980  0.24999  0.52067  1
 O  O3  1  0.06021  0.97933  0.25000  1
 O  O4  1  0.56021  0.74999  0.02067  1
 O  O5  1  0.56020  0.74999  0.47934  1
 O  O6  1  0.06020  0.52065  0.25000  1
 O  O7  1  0.93979  0.47933  0.75001  1
 O  O8  1  0.93980  0.02065  0.75001  1
