CIF file written using JARVIS-Tools package.
data_Bi4Te7Pb
_symmetry_space_group_name_H-M  'P-3m1'
_cell_length_a       4.47765
_cell_length_b       4.47765
_cell_length_c       24.574
_cell_angle_alpha    90
_cell_angle_beta     90
_cell_angle_gamma    120

_symmetry_Int_Tables_number  164
_chemical_formula_structural  Bi4Te7Pb
_chemical_formula_sum  Bi4Te7Pb
_cell_volume  426.68441216404574
_cell_formula_units_Z  1
loop_
  _symmetry_equiv_pos_site_id
 _symmetry_equiv_pos_as_xyz
 1  'x, y, z'
loop_
 _atom_site_type_symbol
 _atom_site_label
 _atom_site_symmetry_multiplicity
 _atom_site_fract_x
 _atom_site_fract_y
 _atom_site_fract_z
 _atom_site_fract_occupancy
 Bi  Bi1  1  0.66667  0.33333  0.41693  1
 Bi  Bi2  1  0.33333  0.66667  0.83661  1
 Bi  Bi3  1  0.66667  0.33333  0.16339  1
 Bi  Bi4  1  0.33333  0.66667  0.58307  1
 Pb  Pb1  1  0.00000  0.00000  0.00000  1
 Te  Te1  1  0.00000  0.00000  0.50000  1
 Te  Te2  1  0.33333  0.66667  0.34699  1
 Te  Te3  1  0.66667  0.33333  0.65301  1
 Te  Te4  1  0.00000  0.00000  0.23284  1
 Te  Te5  1  0.00000  0.00000  0.76716  1
 Te  Te6  1  0.66667  0.33333  0.91991  1
 Te  Te7  1  0.33333  0.66667  0.08009  1
