CIF file written using JARVIS-Tools package.
data_Li2MnV3O8
_symmetry_space_group_name_H-M  'R-3m'
_cell_length_a       5.8817
_cell_length_b       5.8817
_cell_length_c       5.8817
_cell_angle_alpha    58.9237
_cell_angle_beta     58.9237
_cell_angle_gamma    58.9237

_symmetry_Int_Tables_number  166
_chemical_formula_structural  Li2MnV3O8
_chemical_formula_sum  Li2MnV3O8
_cell_volume  140.34373599555002
_cell_formula_units_Z  1
loop_
  _symmetry_equiv_pos_site_id
 _symmetry_equiv_pos_as_xyz
 1  'x, y, z'
loop_
 _atom_site_type_symbol
 _atom_site_label
 _atom_site_symmetry_multiplicity
 _atom_site_fract_x
 _atom_site_fract_y
 _atom_site_fract_z
 _atom_site_fract_occupancy
 Li  Li1  1  0.12705  0.12705  0.12705  1
 Li  Li2  1  0.87295  0.87295  0.87295  1
 Mn  Mn1  1  0.50000  0.50000  0.50000  1
 O  O1  1  0.26063  0.26063  0.26063  1
 O  O2  1  0.26284  0.26284  0.71627  1
 O  O3  1  0.26284  0.71627  0.26284  1
 O  O4  1  0.71627  0.26284  0.26284  1
 O  O5  1  0.28373  0.73716  0.73716  1
 O  O6  1  0.73716  0.28373  0.73716  1
 O  O7  1  0.73716  0.73716  0.28373  1
 O  O8  1  0.73937  0.73937  0.73937  1
 V  V1  1  -0.00000  0.50000  0.50000  1
 V  V2  1  0.50000  -0.00000  0.50000  1
 V  V3  1  0.50000  0.50000  0.00000  1
