CIF file written using JARVIS-Tools package.
data_ThCu2Sn2
_symmetry_space_group_name_H-M  'P4/nmm'
_cell_length_a       4.47212
_cell_length_b       4.47212
_cell_length_c       10.6098
_cell_angle_alpha    90
_cell_angle_beta     90
_cell_angle_gamma    90

_symmetry_Int_Tables_number  129
_chemical_formula_structural  ThCu2Sn2
_chemical_formula_sum  Th2Cu4Sn4
_cell_volume  212.19470988843779
_cell_formula_units_Z  2
loop_
  _symmetry_equiv_pos_site_id
 _symmetry_equiv_pos_as_xyz
 1  'x, y, z'
loop_
 _atom_site_type_symbol
 _atom_site_label
 _atom_site_symmetry_multiplicity
 _atom_site_fract_x
 _atom_site_fract_y
 _atom_site_fract_z
 _atom_site_fract_occupancy
 Cu  Cu1  1  0.50000  0.50000  0.00000  1
 Cu  Cu2  1  0.00000  0.00000  0.00000  1
 Cu  Cu3  1  0.00000  0.50000  0.36369  1
 Cu  Cu4  1  0.50000  0.00000  0.63631  1
 Sn  Sn1  1  0.00000  0.50000  0.12819  1
 Sn  Sn2  1  0.50000  0.50000  0.50000  1
 Sn  Sn3  1  0.00000  0.00000  0.50000  1
 Sn  Sn4  1  0.50000  0.00000  0.87181  1
 Th  Th1  1  0.50000  0.00000  0.24027  1
 Th  Th2  1  0.00000  0.50000  0.75973  1
