CIF file written using JARVIS-Tools package.
data_KPH2SO3
_symmetry_space_group_name_H-M  'Cm'
_cell_length_a       4.53348
_cell_length_b       4.53348
_cell_length_c       5.87253
_cell_angle_alpha    76.2279
_cell_angle_beta     103.772
_cell_angle_gamma    91.6788

_symmetry_Int_Tables_number  8
_chemical_formula_structural  KPH2SO3
_chemical_formula_sum  KPH2SO3
_cell_volume  113.80677773937184
_cell_formula_units_Z  1
loop_
  _symmetry_equiv_pos_site_id
 _symmetry_equiv_pos_as_xyz
 1  'x, y, z'
loop_
 _atom_site_type_symbol
 _atom_site_label
 _atom_site_symmetry_multiplicity
 _atom_site_fract_x
 _atom_site_fract_y
 _atom_site_fract_z
 _atom_site_fract_occupancy
 H  H1  1  0.16739  0.20402  0.80735  1
 H  H2  1  0.79598  0.83261  0.80735  1
 K  K1  1  0.15653  0.84347  0.39272  1
 O  O1  1  0.89671  0.10329  0.90543  1
 O  O2  1  0.34674  0.26043  0.72449  1
 O  O3  1  0.73957  0.65326  0.72449  1
 P  P1  1  0.65472  0.34528  0.88985  1
 S  S1  1  0.60819  0.39181  0.20633  1
