CIF file written using JARVIS-Tools package.
data_AuClO2
_symmetry_space_group_name_H-M  'C2/c'
_cell_length_a       3.5253
_cell_length_b       4.72734
_cell_length_c       9.42748
_cell_angle_alpha    104.52
_cell_angle_beta     90.6687
_cell_angle_gamma    87.3317

_symmetry_Int_Tables_number  15
_chemical_formula_structural  AuClO2
_chemical_formula_sum  Au2Cl2O4
_cell_volume  151.92875208034317
_cell_formula_units_Z  2
loop_
  _symmetry_equiv_pos_site_id
 _symmetry_equiv_pos_as_xyz
 1  'x, y, z'
loop_
 _atom_site_type_symbol
 _atom_site_label
 _atom_site_symmetry_multiplicity
 _atom_site_fract_x
 _atom_site_fract_y
 _atom_site_fract_z
 _atom_site_fract_occupancy
 Au  Au1  1  -0.00000  0.50000  0.50000  1
 Au  Au2  1  0.50000  0.00000  0.50000  1
 Cl  Cl1  1  0.75000  0.64679  0.29358  1
 Cl  Cl2  1  0.25000  0.35321  0.70642  1
 O  O1  1  0.75804  0.83223  0.92595  1
 O  O2  1  0.74196  0.09372  0.92595  1
 O  O3  1  0.25804  0.90628  0.07405  1
 O  O4  1  0.24196  0.16777  0.07405  1
