CIF file written using JARVIS-Tools package.
data_Li5V5Co2O12
_symmetry_space_group_name_H-M  'C2'
_cell_length_a       5.01337
_cell_length_b       5.01336
_cell_length_c       9.65904
_cell_angle_alpha    85.2169
_cell_angle_beta     94.7831
_cell_angle_gamma    60.5793

_symmetry_Int_Tables_number  5
_chemical_formula_structural  Li5V5Co2O12
_chemical_formula_sum  Li5V5Co2O2
_cell_volume  208.55019185178583
_cell_formula_units_Z  1
loop_
  _symmetry_equiv_pos_site_id
 _symmetry_equiv_pos_as_xyz
 1  'x, y, z'
loop_
 _atom_site_type_symbol
 _atom_site_label
 _atom_site_symmetry_multiplicity
 _atom_site_fract_x
 _atom_site_fract_y
 _atom_site_fract_z
 _atom_site_fract_occupancy
 Co  Co1  1  0.24634  0.24634  0.75000  1
 Co  Co2  1  0.74985  0.74985  0.25000  1
 Li  Li1  1  0.92362  0.92362  0.75000  1
 Li  Li2  1  0.15886  0.66292  0.50758  1
 Li  Li3  1  0.66292  0.15886  0.99242  1
 Li  Li4  1  0.32575  0.84400  0.99185  1
 Li  Li5  1  0.84400  0.32575  0.50815  1
 O  O1  1  0.63238  0.85665  0.87503  1
 O  O2  1  0.72711  0.44240  0.12205  1
 O  O3  1  0.44240  0.72711  0.37795  1
 O  O4  1  0.54763  0.28954  0.62553  1
 O  O5  1  0.28954  0.54763  0.87447  1
 O  O6  1  0.35212  0.15158  0.12581  1
 O  O7  1  0.15158  0.35212  0.37419  1
 O  O8  1  0.94016  0.22138  0.87526  1
 O  O9  1  0.77725  0.05929  0.37761  1
 O  O10  1  0.85665  0.63238  0.62497  1
 O  O11  1  0.22138  0.94016  0.62474  1
 O  O12  1  0.05929  0.77725  0.12239  1
 V  V1  1  0.50543  0.00018  0.51642  1
 V  V2  1  0.00018  0.50543  0.98358  1
 V  V3  1  0.07593  0.07593  0.25000  1
 V  V4  1  0.58116  0.58116  0.75000  1
 V  V5  1  0.42847  0.42847  0.25000  1
