CIF file written using JARVIS-Tools package.
data_Li4FeO3F
_symmetry_space_group_name_H-M  'Cc'
_cell_length_a       5.54917
_cell_length_b       5.55001
_cell_length_c       6.15927
_cell_angle_alpha    89.8605
_cell_angle_beta     89.833
_cell_angle_gamma    88.833

_symmetry_Int_Tables_number  9
_chemical_formula_structural  Li4FeO3F
_chemical_formula_sum  Li8Fe2O6F2
_cell_volume  189.652521407171
_cell_formula_units_Z  2
loop_
  _symmetry_equiv_pos_site_id
 _symmetry_equiv_pos_as_xyz
 1  'x, y, z'
loop_
 _atom_site_type_symbol
 _atom_site_label
 _atom_site_symmetry_multiplicity
 _atom_site_fract_x
 _atom_site_fract_y
 _atom_site_fract_z
 _atom_site_fract_occupancy
 F  F1  1  0.64912  0.68947  0.73844  1
 F  F2  1  0.66605  0.67268  0.23845  1
 Fe  Fe1  1  0.27618  0.68747  0.75093  1
 Fe  Fe2  1  0.66386  0.29977  0.25068  1
 Li  Li1  1  0.12111  0.39140  0.48902  1
 Li  Li2  1  0.61526  0.32337  0.71371  1
 Li  Li3  1  0.36742  0.14499  0.98900  1
 Li  Li4  1  0.00325  0.14622  0.80334  1
 Li  Li5  1  0.80404  0.82295  0.99505  1
 Li  Li6  1  0.79931  0.82765  0.49504  1
 Li  Li7  1  0.29994  0.63916  0.21396  1
 Li  Li8  1  0.12270  0.02705  0.30365  1
 O  O1  1  0.16263  0.86230  0.98921  1
 O  O2  1  0.14107  0.74526  0.48063  1
 O  O3  1  0.26585  0.35516  0.76700  1
 O  O4  1  0.33149  0.28977  0.26705  1
 O  O5  1  0.72134  0.16457  0.98030  1
 O  O6  1  0.83859  0.18623  0.48893  1
