CIF file written using JARVIS-Tools package.
data_LiAl2FeO6
_symmetry_space_group_name_H-M  'C2/m'
_cell_length_a       4.9019
_cell_length_b       4.90189
_cell_length_c       5.19419
_cell_angle_alpha    79.7484
_cell_angle_beta     100.252
_cell_angle_gamma    59.6364

_symmetry_Int_Tables_number  12
_chemical_formula_structural  LiAl2FeO6
_chemical_formula_sum  LiAl2FeO6
_cell_volume  100.55564712260886
_cell_formula_units_Z  1
loop_
  _symmetry_equiv_pos_site_id
 _symmetry_equiv_pos_as_xyz
 1  'x, y, z'
loop_
 _atom_site_type_symbol
 _atom_site_label
 _atom_site_symmetry_multiplicity
 _atom_site_fract_x
 _atom_site_fract_y
 _atom_site_fract_z
 _atom_site_fract_occupancy
 Al  Al1  1  0.33095  0.33095  0.00000  1
 Al  Al2  1  0.66905  0.66905  -0.00000  1
 Fe  Fe1  1  0.00000  0.00000  0.00000  1
 Li  Li1  1  0.50000  0.50000  0.50000  1
 O  O1  1  0.08141  0.59536  0.20109  1
 O  O2  1  0.25662  0.74338  0.80098  1
 O  O3  1  0.59536  0.08141  0.79891  1
 O  O4  1  0.40464  0.91859  0.20109  1
 O  O5  1  0.74338  0.25662  0.19902  1
 O  O6  1  0.91859  0.40464  0.79891  1
