CIF file written using JARVIS-Tools package.
data_Na2Mn2O3
_symmetry_space_group_name_H-M  'P2_1/c'
_cell_length_a       5.69172
_cell_length_b       6.29907
_cell_length_c       6.14778
_cell_angle_alpha    90
_cell_angle_beta     116.529
_cell_angle_gamma    90

_symmetry_Int_Tables_number  14
_chemical_formula_structural  Na2Mn2O3
_chemical_formula_sum  Na4Mn4O6
_cell_volume  197.20598812261645
_cell_formula_units_Z  2
loop_
  _symmetry_equiv_pos_site_id
 _symmetry_equiv_pos_as_xyz
 1  'x, y, z'
loop_
 _atom_site_type_symbol
 _atom_site_label
 _atom_site_symmetry_multiplicity
 _atom_site_fract_x
 _atom_site_fract_y
 _atom_site_fract_z
 _atom_site_fract_occupancy
 Mn  Mn1  1  0.48032  0.62118  0.69799  1
 Mn  Mn2  1  0.01968  0.12118  0.30201  1
 Mn  Mn3  1  0.98032  0.87882  0.69799  1
 Mn  Mn4  1  0.51968  0.37882  0.30201  1
 Na  Na1  1  0.06478  0.36267  0.75845  1
 Na  Na2  1  0.56478  0.13733  0.75845  1
 Na  Na3  1  0.43522  0.86267  0.24155  1
 Na  Na4  1  0.93522  0.63733  0.24155  1
 O  O1  1  0.50000  0.50000  -0.00000  1
 O  O2  1  0.00000  0.00000  0.00000  1
 O  O3  1  0.24167  0.87911  0.55282  1
 O  O4  1  0.25833  0.37911  0.44718  1
 O  O5  1  0.74167  0.62089  0.55282  1
 O  O6  1  0.75833  0.12089  0.44718  1
