CIF file written using JARVIS-Tools package.
data_BaMnS2
_symmetry_space_group_name_H-M  'Pnma'
_cell_length_a       4.15168
_cell_length_b       7.06508
_cell_length_c       14.0108
_cell_angle_alpha    90
_cell_angle_beta     90
_cell_angle_gamma    90

_symmetry_Int_Tables_number  62
_chemical_formula_structural  BaMnS2
_chemical_formula_sum  Ba4Mn4S8
_cell_volume  410.96318544097164
_cell_formula_units_Z  4
loop_
  _symmetry_equiv_pos_site_id
 _symmetry_equiv_pos_as_xyz
 1  'x, y, z'
loop_
 _atom_site_type_symbol
 _atom_site_label
 _atom_site_symmetry_multiplicity
 _atom_site_fract_x
 _atom_site_fract_y
 _atom_site_fract_z
 _atom_site_fract_occupancy
 Ba  Ba1  1  0.25000  0.71532  0.62794  1
 Ba  Ba2  1  0.75000  0.28468  0.37206  1
 Ba  Ba3  1  0.25000  0.21532  0.87206  1
 Ba  Ba4  1  0.75000  0.78468  0.12794  1
 Mn  Mn1  1  0.75000  0.23017  0.63477  1
 Mn  Mn2  1  0.75000  0.73017  0.86523  1
 Mn  Mn3  1  0.25000  0.76983  0.36523  1
 Mn  Mn4  1  0.25000  0.26983  0.13477  1
 S  S1  1  0.25000  0.52783  0.24424  1
 S  S2  1  0.75000  0.47217  0.75576  1
 S  S3  1  0.25000  0.02783  0.25576  1
 S  S4  1  0.75000  0.97217  0.74424  1
 S  S5  1  0.25000  0.75522  0.95312  1
 S  S6  1  0.75000  0.74478  0.45312  1
 S  S7  1  0.25000  0.25522  0.54688  1
 S  S8  1  0.75000  0.24478  0.04688  1
