CIF file written using JARVIS-Tools package.
data_CaSnO3
_symmetry_space_group_name_H-M  'R-3'
_cell_length_a       6.03859
_cell_length_b       6.03858
_cell_length_c       6.03858
_cell_angle_alpha    54.8179
_cell_angle_beta     54.818
_cell_angle_gamma    54.8179

_symmetry_Int_Tables_number  148
_chemical_formula_structural  CaSnO3
_chemical_formula_sum  Ca2Sn2O6
_cell_volume  136.91409846273794
_cell_formula_units_Z  2
loop_
  _symmetry_equiv_pos_site_id
 _symmetry_equiv_pos_as_xyz
 1  'x, y, z'
loop_
 _atom_site_type_symbol
 _atom_site_label
 _atom_site_symmetry_multiplicity
 _atom_site_fract_x
 _atom_site_fract_y
 _atom_site_fract_z
 _atom_site_fract_occupancy
 Ca  Ca1  1  0.36236  0.36236  0.36236  1
 Ca  Ca2  1  0.63764  0.63764  0.63764  1
 O  O1  1  0.79037  0.44403  0.03549  1
 O  O2  1  0.44403  0.03549  0.79037  1
 O  O3  1  0.03549  0.79037  0.44403  1
 O  O4  1  0.20963  0.55597  0.96451  1
 O  O5  1  0.96451  0.20963  0.55597  1
 O  O6  1  0.55597  0.96451  0.20963  1
 Sn  Sn1  1  0.15343  0.15343  0.15343  1
 Sn  Sn2  1  0.84657  0.84657  0.84657  1
