CIF file written using JARVIS-Tools package.
data_Mg3BH2O5F
_symmetry_space_group_name_H-M  'Pm'
_cell_length_a       8.98525
_cell_length_b       3.1404
_cell_length_c       9.00241
_cell_angle_alpha    90
_cell_angle_beta     119.742
_cell_angle_gamma    90

_symmetry_Int_Tables_number  6
_chemical_formula_structural  Mg3BH2O5F
_chemical_formula_sum  Mg6B2H4O0F2
_cell_volume  220.56035380988266
_cell_formula_units_Z  2
loop_
  _symmetry_equiv_pos_site_id
 _symmetry_equiv_pos_as_xyz
 1  'x, y, z'
loop_
 _atom_site_type_symbol
 _atom_site_label
 _atom_site_symmetry_multiplicity
 _atom_site_fract_x
 _atom_site_fract_y
 _atom_site_fract_z
 _atom_site_fract_occupancy
 B  B1  1  0.33855  0.50000  0.66868  1
 B  B2  1  0.67272  0.00000  0.33441  1
 F  F1  1  0.70831  0.00000  0.78859  1
 F  F2  1  0.91167  0.50000  0.69780  1
 H  H1  1  0.85354  0.50000  0.00204  1
 H  H2  1  0.01417  0.00000  0.16818  1
 H  H3  1  0.13443  0.00000  0.96406  1
 H  H4  1  0.17724  0.50000  0.15908  1
 Mg  Mg1  1  0.34867  0.00000  0.37673  1
 Mg  Mg2  1  0.37426  0.50000  0.03197  1
 Mg  Mg3  1  0.62935  0.00000  0.96772  1
 Mg  Mg4  1  0.66522  0.50000  0.62547  1
 Mg  Mg5  1  0.03831  0.00000  0.66019  1
 Mg  Mg6  1  0.97256  0.50000  0.34168  1
 O  O1  1  0.84978  0.00000  0.39956  1
 O  O2  1  0.60962  0.00000  0.44889  1
 O  O3  1  0.80273  0.50000  0.07601  1
 O  O4  1  0.56212  0.00000  0.15831  1
 O  O5  1  0.30149  0.50000  0.21078  1
 O  O6  1  0.44990  0.50000  0.84541  1
 O  O7  1  0.20608  0.00000  0.91105  1
 O  O8  1  0.40689  0.50000  0.55936  1
 O  O9  1  0.16123  0.50000  0.60244  1
 O  O10  1  0.09116  0.00000  0.29159  1
