CIF file written using JARVIS-Tools package.
data_TmMg16Al12
_symmetry_space_group_name_H-M  'I-43m'
_cell_length_a       9.1339
_cell_length_b       9.1339
_cell_length_c       9.1339
_cell_angle_alpha    109.471
_cell_angle_beta     109.471
_cell_angle_gamma    109.471

_symmetry_Int_Tables_number  217
_chemical_formula_structural  TmMg16Al12
_chemical_formula_sum  TmMg6Al2
_cell_volume  586.6067119085883
_cell_formula_units_Z  1
loop_
  _symmetry_equiv_pos_site_id
 _symmetry_equiv_pos_as_xyz
 1  'x, y, z'
loop_
 _atom_site_type_symbol
 _atom_site_label
 _atom_site_symmetry_multiplicity
 _atom_site_fract_x
 _atom_site_fract_y
 _atom_site_fract_z
 _atom_site_fract_occupancy
 Al  Al1  1  0.18683  0.18683  0.81917  1
 Al  Al2  1  0.00000  0.63234  0.81317  1
 Al  Al3  1  0.63234  0.81317  -0.00000  1
 Al  Al4  1  0.36766  0.36766  0.18083  1
 Al  Al5  1  0.18683  0.81917  0.18683  1
 Al  Al6  1  0.81317  0.63234  0.00000  1
 Al  Al7  1  0.18083  0.36766  0.36766  1
 Al  Al8  1  0.36766  0.18083  0.36766  1
 Al  Al9  1  -0.00000  0.81317  0.63234  1
 Al  Al10  1  0.81317  0.00000  0.63234  1
 Al  Al11  1  0.63234  0.00000  0.81317  1
 Al  Al12  1  0.81917  0.18683  0.18683  1
 Mg  Mg1  1  -0.00000  -0.00000  0.35448  1
 Mg  Mg2  1  0.60435  0.31907  0.00000  1
 Mg  Mg3  1  0.31907  0.60435  0.00000  1
 Mg  Mg4  1  0.35448  -0.00000  -0.00000  1
 Mg  Mg5  1  0.68093  0.68093  0.28528  1
 Mg  Mg6  1  0.00000  0.60435  0.31907  1
 Mg  Mg7  1  0.60435  0.00000  0.31907  1
 Mg  Mg8  1  0.68093  0.28528  0.68093  1
 Mg  Mg9  1  0.39565  0.71472  0.39565  1
 Mg  Mg10  1  0.71472  0.39565  0.39565  1
 Mg  Mg11  1  0.00000  0.31907  0.60435  1
 Mg  Mg12  1  0.31907  0.00000  0.60435  1
 Mg  Mg13  1  0.64552  0.64552  0.64552  1
 Mg  Mg14  1  0.28528  0.68093  0.68093  1
 Mg  Mg15  1  0.39565  0.39565  0.71472  1
 Mg  Mg16  1  -0.00000  0.35448  -0.00000  1
 Tm  Tm1  1  0.00000  0.00000  0.00000  1
