CIF file written using JARVIS-Tools package.
data_Li2Mn2CuO6
_symmetry_space_group_name_H-M  'Cmce'
_cell_length_a       5.06976
_cell_length_b       5.06976
_cell_length_c       10.1193
_cell_angle_alpha    90
_cell_angle_beta     90
_cell_angle_gamma    121.394

_symmetry_Int_Tables_number  64
_chemical_formula_structural  Li2Mn2CuO6
_chemical_formula_sum  Li4Mn4Cu2O2
_cell_volume  222.01450425844888
_cell_formula_units_Z  2
loop_
  _symmetry_equiv_pos_site_id
 _symmetry_equiv_pos_as_xyz
 1  'x, y, z'
loop_
 _atom_site_type_symbol
 _atom_site_label
 _atom_site_symmetry_multiplicity
 _atom_site_fract_x
 _atom_site_fract_y
 _atom_site_fract_z
 _atom_site_fract_occupancy
 Cu  Cu1  1  0.00000  0.00000  0.00000  1
 Cu  Cu2  1  0.50000  0.50000  0.50000  1
 Li  Li1  1  0.17701  0.67701  0.75000  1
 Li  Li2  1  0.32299  0.82299  0.25000  1
 Li  Li3  1  0.67701  0.17701  0.75000  1
 Li  Li4  1  0.82299  0.32299  0.25000  1
 Mn  Mn1  1  0.16354  0.83646  0.50000  1
 Mn  Mn2  1  0.33646  0.66354  0.00000  1
 Mn  Mn3  1  0.66354  0.33646  0.00000  1
 Mn  Mn4  1  0.83646  0.16354  0.50000  1
 O  O1  1  0.86844  0.49377  0.60729  1
 O  O2  1  0.99377  0.36844  0.89271  1
 O  O3  1  0.13156  0.50623  0.39271  1
 O  O4  1  0.49377  0.86844  0.60729  1
 O  O5  1  0.00623  0.63156  0.10729  1
 O  O6  1  0.50623  0.13156  0.39271  1
 O  O7  1  0.65990  0.65990  0.90513  1
 O  O8  1  0.36844  0.99377  0.89271  1
 O  O9  1  0.84010  0.84010  0.40513  1
 O  O10  1  0.15990  0.15990  0.59487  1
 O  O11  1  0.34010  0.34010  0.09487  1
 O  O12  1  0.63156  0.00623  0.10729  1
