CIF file written using JARVIS-Tools package.
data_ZnSb2O4
_symmetry_space_group_name_H-M  'Cmcm'
_cell_length_a       3.37919
_cell_length_b       5.3169
_cell_length_c       14.5859
_cell_angle_alpha    90
_cell_angle_beta     90
_cell_angle_gamma    108.529

_symmetry_Int_Tables_number  63
_chemical_formula_structural  ZnSb2O4
_chemical_formula_sum  Zn2Sb4O8
_cell_volume  248.47892225416024
_cell_formula_units_Z  2
loop_
  _symmetry_equiv_pos_site_id
 _symmetry_equiv_pos_as_xyz
 1  'x, y, z'
loop_
 _atom_site_type_symbol
 _atom_site_label
 _atom_site_symmetry_multiplicity
 _atom_site_fract_x
 _atom_site_fract_y
 _atom_site_fract_z
 _atom_site_fract_occupancy
 O  O1  1  0.22048  0.44095  0.43403  1
 O  O2  1  0.77952  0.55905  0.56597  1
 O  O3  1  0.77952  0.55905  0.93403  1
 O  O4  1  0.22048  0.44095  0.06597  1
 O  O5  1  0.03471  0.06942  0.25000  1
 O  O6  1  -0.03471  -0.06942  0.75000  1
 O  O7  1  0.50000  0.00000  0.00000  1
 O  O8  1  0.50000  0.00000  0.50000  1
 Sb  Sb1  1  0.86278  0.72557  0.06270  1
 Sb  Sb2  1  0.13722  0.27443  0.93730  1
 Sb  Sb3  1  0.86278  0.72557  0.43730  1
 Sb  Sb4  1  0.13722  0.27443  0.56270  1
 Zn  Zn1  1  0.41740  0.83479  0.75000  1
 Zn  Zn2  1  0.58260  0.16521  0.25000  1
