CIF file written using JARVIS-Tools package.
data_Li2VBO4
_symmetry_space_group_name_H-M  'Pmn2_1'
_cell_length_a       4.63086
_cell_length_b       5.35573
_cell_length_c       5.83702
_cell_angle_alpha    90
_cell_angle_beta     90
_cell_angle_gamma    90

_symmetry_Int_Tables_number  31
_chemical_formula_structural  Li2VBO4
_chemical_formula_sum  Li4V2B2O8
_cell_volume  144.7676363847696
_cell_formula_units_Z  2
loop_
  _symmetry_equiv_pos_site_id
 _symmetry_equiv_pos_as_xyz
 1  'x, y, z'
loop_
 _atom_site_type_symbol
 _atom_site_label
 _atom_site_symmetry_multiplicity
 _atom_site_fract_x
 _atom_site_fract_y
 _atom_site_fract_z
 _atom_site_fract_occupancy
 B  B1  1  0.49592  0.82322  0.00000  1
 B  B2  1  0.99592  0.17678  0.50000  1
 Li  Li1  1  0.01051  0.65935  0.25513  1
 Li  Li2  1  0.51051  0.34065  0.24487  1
 Li  Li3  1  0.01051  0.65935  0.74487  1
 Li  Li4  1  0.51051  0.34065  0.75513  1
 O  O1  1  0.17451  0.81998  0.00000  1
 O  O2  1  0.59314  0.09341  0.00000  1
 O  O3  1  0.09722  0.30849  0.28876  1
 O  O4  1  0.59722  0.69151  0.21124  1
 O  O5  1  0.09314  0.90659  0.50000  1
 O  O6  1  0.67451  0.18002  0.50000  1
 O  O7  1  0.59722  0.69151  0.78876  1
 O  O8  1  0.09722  0.30849  0.71124  1
 V  V1  1  0.02097  0.14158  0.00000  1
 V  V2  1  0.52097  0.85842  0.50000  1
