CIF file written using JARVIS-Tools package.
data_SiPN3
_symmetry_space_group_name_H-M  'Cc'
_cell_length_a       9.41478
_cell_length_b       5.30088
_cell_length_c       5.30088
_cell_angle_alpha    120.443
_cell_angle_beta     89.9064
_cell_angle_gamma    89.9064

_symmetry_Int_Tables_number  9
_chemical_formula_structural  SiPN3
_chemical_formula_sum  Si4P4N2
_cell_volume  228.0749815080139
_cell_formula_units_Z  4
loop_
  _symmetry_equiv_pos_site_id
 _symmetry_equiv_pos_as_xyz
 1  'x, y, z'
loop_
 _atom_site_type_symbol
 _atom_site_label
 _atom_site_symmetry_multiplicity
 _atom_site_fract_x
 _atom_site_fract_y
 _atom_site_fract_z
 _atom_site_fract_occupancy
 N  N1  1  0.92163  0.89863  0.33896  1
 N  N2  1  0.17190  0.65675  0.08511  1
 N  N3  1  0.21776  0.25028  0.22852  1
 N  N4  1  0.42163  0.33896  0.89863  1
 N  N5  1  0.42832  0.92212  0.34099  1
 N  N6  1  0.46668  0.77377  0.75051  1
 N  N7  1  0.67190  0.08511  0.65675  1
 N  N8  1  0.67787  0.66538  0.09455  1
 N  N9  1  0.17787  0.09455  0.66538  1
 N  N10  1  0.92832  0.34099  0.92212  1
 N  N11  1  0.96668  0.75051  0.77377  1
 N  N12  1  0.71776  0.22852  0.25028  1
 P  P1  1  0.99729  0.66238  0.00460  1
 P  P2  1  0.24875  0.32678  0.98931  1
 P  P3  1  0.49729  0.00460  0.66238  1
 P  P4  1  0.74875  0.98931  0.32678  1
 Si  Si1  1  0.50262  0.68076  0.99756  1
 Si  Si2  1  0.00262  0.99756  0.68076  1
 Si  Si3  1  0.25088  0.00620  0.32684  1
 Si  Si4  1  0.75088  0.32684  0.00620  1
