CIF file written using JARVIS-Tools package.
data_Na2CO3
_symmetry_space_group_name_H-M  'C2/m'
_cell_length_a       5.3235
_cell_length_b       5.16856
_cell_length_c       5.97215
_cell_angle_alpha    101.566
_cell_angle_beta     90
_cell_angle_gamma    120.997

_symmetry_Int_Tables_number  12
_chemical_formula_structural  Na2CO3
_chemical_formula_sum  Na4C2O6
_cell_volume  136.94956394441243
_cell_formula_units_Z  2
loop_
  _symmetry_equiv_pos_site_id
 _symmetry_equiv_pos_as_xyz
 1  'x, y, z'
loop_
 _atom_site_type_symbol
 _atom_site_label
 _atom_site_symmetry_multiplicity
 _atom_site_fract_x
 _atom_site_fract_y
 _atom_site_fract_z
 _atom_site_fract_occupancy
 C  C1  1  0.33678  0.67357  0.75107  1
 C  C2  1  0.66322  0.32643  0.24893  1
 Na  Na1  1  0.66893  0.33785  0.73949  1
 Na  Na2  1  0.33107  0.66215  0.26051  1
 Na  Na3  1  0.00000  0.00000  0.00000  1
 Na  Na4  1  -0.00000  -0.00000  0.50000  1
 O  O1  1  0.21397  0.42794  0.83382  1
 O  O2  1  0.39092  0.20288  0.29198  1
 O  O3  1  0.18804  0.79712  0.70802  1
 O  O4  1  0.81196  0.20288  0.29198  1
 O  O5  1  0.60908  0.79712  0.70802  1
 O  O6  1  0.78603  0.57206  0.16618  1
