CIF file written using JARVIS-Tools package.
data_DyWO4
_symmetry_space_group_name_H-M  'I4_1/a'
_cell_length_a       5.25334
_cell_length_b       6.64794
_cell_length_c       5.25334
_cell_angle_alpha    66.7272
_cell_angle_beta     90
_cell_angle_gamma    113.273

_symmetry_Int_Tables_number  88
_chemical_formula_structural  DyWO4
_chemical_formula_sum  Dy2W2O8
_cell_volume  152.15335484033304
_cell_formula_units_Z  2
loop_
  _symmetry_equiv_pos_site_id
 _symmetry_equiv_pos_as_xyz
 1  'x, y, z'
loop_
 _atom_site_type_symbol
 _atom_site_label
 _atom_site_symmetry_multiplicity
 _atom_site_fract_x
 _atom_site_fract_y
 _atom_site_fract_z
 _atom_site_fract_occupancy
 Dy  Dy1  1  0.87500  0.25000  0.37500  1
 Dy  Dy2  1  0.12500  0.75000  0.62500  1
 O  O1  1  0.46685  0.08608  0.21703  1
 O  O2  1  0.80311  0.58608  0.03315  1
 O  O3  1  0.28297  0.58608  0.38077  1
 O  O4  1  0.88077  0.91392  0.30311  1
 O  O5  1  0.11923  0.08608  0.69689  1
 O  O6  1  0.71703  0.41392  0.61923  1
 O  O7  1  0.19689  0.41392  0.96685  1
 O  O8  1  0.53315  0.91392  0.78297  1
 W  W1  1  0.62500  0.75000  0.12500  1
 W  W2  1  0.37500  0.25000  0.87500  1
