CIF file written using JARVIS-Tools package.
data_NiHgO2
_symmetry_space_group_name_H-M  'R-3m'
_cell_length_a       7.28022
_cell_length_b       7.28022
_cell_length_c       7.28022
_cell_angle_alpha    23.0982
_cell_angle_beta     23.0982
_cell_angle_gamma    23.0981

_symmetry_Int_Tables_number  166
_chemical_formula_structural  NiHgO2
_chemical_formula_sum  NiHgO2
_cell_volume  52.126302205952626
_cell_formula_units_Z  1
loop_
  _symmetry_equiv_pos_site_id
 _symmetry_equiv_pos_as_xyz
 1  'x, y, z'
loop_
 _atom_site_type_symbol
 _atom_site_label
 _atom_site_symmetry_multiplicity
 _atom_site_fract_x
 _atom_site_fract_y
 _atom_site_fract_z
 _atom_site_fract_occupancy
 Hg  Hg1  1  0.00000  0.00000  0.00000  1
 Ni  Ni1  1  0.50000  0.50000  0.50000  1
 O  O1  1  0.12238  0.12238  0.12238  1
 O  O2  1  0.87762  0.87762  0.87762  1
