CIF file written using JARVIS-Tools package.
data_AsRh
_symmetry_space_group_name_H-M  'Pnma'
_cell_length_a       3.65808
_cell_length_b       5.72779
_cell_length_c       6.15016
_cell_angle_alpha    90
_cell_angle_beta     90
_cell_angle_gamma    90

_symmetry_Int_Tables_number  62
_chemical_formula_structural  AsRh
_chemical_formula_sum  As4Rh4
_cell_volume  128.8623840508351
_cell_formula_units_Z  4
loop_
  _symmetry_equiv_pos_site_id
 _symmetry_equiv_pos_as_xyz
 1  'x, y, z'
loop_
 _atom_site_type_symbol
 _atom_site_label
 _atom_site_symmetry_multiplicity
 _atom_site_fract_x
 _atom_site_fract_y
 _atom_site_fract_z
 _atom_site_fract_occupancy
 As  As1  1  0.25000  0.69753  0.08669  1
 As  As2  1  0.75000  0.30247  0.91331  1
 As  As3  1  0.25000  0.19753  0.41331  1
 As  As4  1  0.75000  0.80247  0.58669  1
 Rh  Rh1  1  0.25000  0.50123  0.69523  1
 Rh  Rh2  1  0.75000  0.49877  0.30477  1
 Rh  Rh3  1  0.25000  0.00123  0.80477  1
 Rh  Rh4  1  0.75000  0.99877  0.19523  1
