CIF file written using JARVIS-Tools package.
data_Mg2CuN2
_symmetry_space_group_name_H-M  'C2/m'
_cell_length_a       4.02409
_cell_length_b       5.69893
_cell_length_c       6.50408
_cell_angle_alpha    97.158
_cell_angle_beta     108.019
_cell_angle_gamma    110.674

_symmetry_Int_Tables_number  12
_chemical_formula_structural  Mg2CuN2
_chemical_formula_sum  Mg4Cu2N4
_cell_volume  128.04359216905686
_cell_formula_units_Z  2
loop_
  _symmetry_equiv_pos_site_id
 _symmetry_equiv_pos_as_xyz
 1  'x, y, z'
loop_
 _atom_site_type_symbol
 _atom_site_label
 _atom_site_symmetry_multiplicity
 _atom_site_fract_x
 _atom_site_fract_y
 _atom_site_fract_z
 _atom_site_fract_occupancy
 Cu  Cu1  1  0.53239  0.17429  0.88923  1
 Cu  Cu2  1  0.46815  0.82752  0.10766  1
 Mg  Mg1  1  0.85427  0.18252  0.52486  1
 Mg  Mg2  1  0.14623  0.81927  0.47203  1
 Mg  Mg3  1  0.69071  0.64690  0.73339  1
 Mg  Mg4  1  0.30981  0.35493  0.26351  1
 N  N1  1  0.41985  0.24279  0.59575  1
 N  N2  1  0.58067  0.75903  0.40116  1
 N  N3  1  0.71697  0.23603  0.19672  1
 N  N4  1  0.28354  0.76578  0.80018  1
