CIF file written using JARVIS-Tools package.
data_Sm2Hf2O7
_symmetry_space_group_name_H-M  'Fd-3m'
_cell_length_a       7.49988
_cell_length_b       7.49988
_cell_length_c       7.49988
_cell_angle_alpha    60
_cell_angle_beta     60
_cell_angle_gamma    60

_symmetry_Int_Tables_number  227
_chemical_formula_structural  Sm2Hf2O7
_chemical_formula_sum  Sm4Hf4O4
_cell_volume  298.2966356753136
_cell_formula_units_Z  2
loop_
  _symmetry_equiv_pos_site_id
 _symmetry_equiv_pos_as_xyz
 1  'x, y, z'
loop_
 _atom_site_type_symbol
 _atom_site_label
 _atom_site_symmetry_multiplicity
 _atom_site_fract_x
 _atom_site_fract_y
 _atom_site_fract_z
 _atom_site_fract_occupancy
 Hf  Hf1  1  0.12500  0.12500  0.12500  1
 Hf  Hf2  1  0.12500  0.62500  0.12500  1
 Hf  Hf3  1  0.12500  0.12500  0.62500  1
 Hf  Hf4  1  0.62500  0.12500  0.12500  1
 O  O1  1  0.79029  0.20971  0.79029  1
 O  O2  1  0.04029  0.45971  0.45971  1
 O  O3  1  0.45971  0.04029  0.04029  1
 O  O4  1  0.75000  0.75000  0.75000  1
 O  O5  1  0.45971  0.45971  0.04029  1
 O  O6  1  0.20971  0.20971  0.79029  1
 O  O7  1  0.20971  0.79029  0.20971  1
 O  O8  1  0.79029  0.20971  0.20971  1
 O  O9  1  0.45971  0.04029  0.45971  1
 O  O10  1  0.20971  0.79029  0.79029  1
 O  O11  1  0.04029  0.45971  0.04029  1
 O  O12  1  0.79029  0.79029  0.20971  1
 O  O13  1  0.04029  0.04029  0.45971  1
 O  O14  1  0.50000  0.50000  0.50000  1
 Sm  Sm1  1  0.62500  0.62500  0.62500  1
 Sm  Sm2  1  0.62500  0.62500  0.12500  1
 Sm  Sm3  1  0.62500  0.12500  0.62500  1
 Sm  Sm4  1  0.12500  0.62500  0.62500  1
