CIF file written using JARVIS-Tools package.
data_NaVO2
_symmetry_space_group_name_H-M  'P-3m1'
_cell_length_a       2.95897
_cell_length_b       2.95935
_cell_length_c       5.60536
_cell_angle_alpha    89.9915
_cell_angle_beta     90
_cell_angle_gamma    119.996

_symmetry_Int_Tables_number  164
_chemical_formula_structural  NaVO2
_chemical_formula_sum  NaVO2
_cell_volume  42.50975652838578
_cell_formula_units_Z  1
loop_
  _symmetry_equiv_pos_site_id
 _symmetry_equiv_pos_as_xyz
 1  'x, y, z'
loop_
 _atom_site_type_symbol
 _atom_site_label
 _atom_site_symmetry_multiplicity
 _atom_site_fract_x
 _atom_site_fract_y
 _atom_site_fract_z
 _atom_site_fract_occupancy
 Na  Na1  1  -0.00000  -0.00000  0.50000  1
 O  O1  1  0.33328  0.66657  0.20215  1
 O  O2  1  0.66671  0.33343  0.79785  1
 V  V1  1  1.00000  0.00000  0.00000  1
