CIF file written using JARVIS-Tools package.
data_YbBi2Te4
_symmetry_space_group_name_H-M  'I-42d'
_cell_length_a       8.58804
_cell_length_b       8.58804
_cell_length_c       8.58803
_cell_angle_alpha    109.363
_cell_angle_beta     109.687
_cell_angle_gamma    109.363

_symmetry_Int_Tables_number  122
_chemical_formula_structural  YbBi2Te4
_chemical_formula_sum  Yb2Bi4Te8
_cell_volume  487.58986060934916
_cell_formula_units_Z  2
loop_
  _symmetry_equiv_pos_site_id
 _symmetry_equiv_pos_as_xyz
 1  'x, y, z'
loop_
 _atom_site_type_symbol
 _atom_site_label
 _atom_site_symmetry_multiplicity
 _atom_site_fract_x
 _atom_site_fract_y
 _atom_site_fract_z
 _atom_site_fract_occupancy
 Bi  Bi1  1  0.25000  0.50706  0.25706  1
 Bi  Bi2  1  0.74294  0.49294  0.25000  1
 Bi  Bi3  1  0.75000  0.99294  0.24294  1
 Bi  Bi4  1  0.75706  0.00706  0.75000  1
 Te  Te1  1  0.05162  0.43094  0.50719  1
 Te  Te2  1  0.44838  0.95557  0.37932  1
 Te  Te3  1  0.07625  0.06906  0.12068  1
 Te  Te4  1  0.42375  0.54443  0.99281  1
 Te  Te5  1  0.49281  0.04443  0.92375  1
 Te  Te6  1  0.62068  0.56906  0.57625  1
 Te  Te7  1  0.00719  0.93094  0.55162  1
 Te  Te8  1  0.87932  0.45557  0.94838  1
 Yb  Yb1  1  0.12500  0.75000  0.87500  1
 Yb  Yb2  1  0.37500  0.25000  0.62500  1
