CIF file written using JARVIS-Tools package.
data_Ta2H4O7
_symmetry_space_group_name_H-M  'Fddd'
_cell_length_a       7.42535
_cell_length_b       7.67162
_cell_length_c       7.47526
_cell_angle_alpha    58.6934
_cell_angle_beta     61.9742
_cell_angle_gamma    59.3324

_symmetry_Int_Tables_number  70
_chemical_formula_structural  Ta2H4O7
_chemical_formula_sum  Ta4H8O4
_cell_volume  300.5377210634911
_cell_formula_units_Z  2
loop_
  _symmetry_equiv_pos_site_id
 _symmetry_equiv_pos_as_xyz
 1  'x, y, z'
loop_
 _atom_site_type_symbol
 _atom_site_label
 _atom_site_symmetry_multiplicity
 _atom_site_fract_x
 _atom_site_fract_y
 _atom_site_fract_z
 _atom_site_fract_occupancy
 H  H1  1  0.21451  0.21451  0.03549  1
 H  H2  1  0.03549  0.03549  0.21451  1
 H  H3  1  0.96451  0.96451  0.78549  1
 H  H4  1  0.78549  0.78549  0.96451  1
 H  H5  1  0.93044  0.31956  0.93044  1
 H  H6  1  0.68044  0.06956  0.68044  1
 H  H7  1  0.06956  0.68044  0.06956  1
 H  H8  1  0.31956  0.93044  0.31956  1
 O  O1  1  0.80022  0.44978  0.44978  1
 O  O2  1  0.87500  0.87500  0.87500  1
 O  O3  1  0.19978  0.55022  0.55022  1
 O  O4  1  0.19340  0.19340  0.55660  1
 O  O5  1  0.55660  0.55660  0.19340  1
 O  O6  1  0.16695  0.58305  0.16695  1
 O  O7  1  0.55022  0.19978  0.19978  1
 O  O8  1  0.44978  0.80022  0.80022  1
 O  O9  1  0.12500  0.12500  0.12500  1
 O  O10  1  0.44340  0.44340  0.80660  1
 O  O11  1  0.83305  0.41695  0.83305  1
 O  O12  1  0.41695  0.83305  0.41695  1
 O  O13  1  0.58305  0.16695  0.58305  1
 O  O14  1  0.80660  0.80660  0.44340  1
 Ta  Ta1  1  0.50000  0.50000  0.50000  1
 Ta  Ta2  1  -0.00000  0.50000  0.50000  1
 Ta  Ta3  1  0.50000  0.50000  -0.00000  1
 Ta  Ta4  1  0.50000  0.00000  0.50000  1
