CIF file written using JARVIS-Tools package.
data_LiZn2Cu
_symmetry_space_group_name_H-M  'Immm'
_cell_length_a       10.1092
_cell_length_b       9.48089
_cell_length_c       9.48089
_cell_angle_alpha    58.8804
_cell_angle_beta     57.7823
_cell_angle_gamma    57.7823

_symmetry_Int_Tables_number  71
_chemical_formula_structural  LiZn2Cu
_chemical_formula_sum  LiZn2Cu
_cell_volume  615.1108299969449
_cell_formula_units_Z  1
loop_
  _symmetry_equiv_pos_site_id
 _symmetry_equiv_pos_as_xyz
 1  'x, y, z'
loop_
 _atom_site_type_symbol
 _atom_site_label
 _atom_site_symmetry_multiplicity
 _atom_site_fract_x
 _atom_site_fract_y
 _atom_site_fract_z
 _atom_site_fract_occupancy
 Cu  Cu1  1  0.50000  -0.00000  0.00000  1
 Li  Li1  1  0.00000  0.00000  0.00000  1
 Zn  Zn1  1  0.74125  -0.00000  0.00000  1
 Zn  Zn2  1  0.25875  0.00000  -0.00000  1
