CIF file written using JARVIS-Tools package.
data_BaH2O4
_symmetry_space_group_name_H-M  'P2_1/c'
_cell_length_a       4.1679
_cell_length_b       9.46552
_cell_length_c       8.35752
_cell_angle_alpha    90
_cell_angle_beta     98.1665
_cell_angle_gamma    90

_symmetry_Int_Tables_number  14
_chemical_formula_structural  BaH2O4
_chemical_formula_sum  Ba4H8O6
_cell_volume  326.372084677827
_cell_formula_units_Z  4
loop_
  _symmetry_equiv_pos_site_id
 _symmetry_equiv_pos_as_xyz
 1  'x, y, z'
loop_
 _atom_site_type_symbol
 _atom_site_label
 _atom_site_symmetry_multiplicity
 _atom_site_fract_x
 _atom_site_fract_y
 _atom_site_fract_z
 _atom_site_fract_occupancy
 Ba  Ba1  1  0.35551  0.30416  0.37685  1
 Ba  Ba2  1  0.64449  0.80416  0.12315  1
 Ba  Ba3  1  0.64449  0.69584  0.62315  1
 Ba  Ba4  1  0.35551  0.19584  0.87685  1
 H  H1  1  0.06163  0.88753  0.84202  1
 H  H2  1  0.06163  0.61247  0.34202  1
 H  H3  1  0.93837  0.38753  0.65798  1
 H  H4  1  0.93837  0.11247  0.15798  1
 H  H5  1  0.23218  0.93686  0.37270  1
 H  H6  1  0.76782  0.06314  0.62730  1
 H  H7  1  0.23218  0.56314  0.87270  1
 H  H8  1  0.76782  0.43686  0.12730  1
 O  O1  1  0.78545  0.20277  0.16861  1
 O  O2  1  0.83013  0.50421  0.35462  1
 O  O3  1  0.63948  0.98984  0.68866  1
 O  O4  1  0.16987  0.49579  0.64538  1
 O  O5  1  0.83013  -0.00421  0.85462  1
 O  O6  1  0.21455  0.70277  0.33139  1
 O  O7  1  0.16987  0.00421  0.14538  1
 O  O8  1  0.63948  0.51016  0.18866  1
 O  O9  1  0.93540  0.30990  0.06966  1
 O  O10  1  0.93540  0.19010  0.56966  1
 O  O11  1  0.06460  0.69010  0.93034  1
 O  O12  1  0.36052  0.01016  0.31134  1
 O  O13  1  0.78545  0.29723  0.66861  1
 O  O14  1  0.06460  0.80990  0.43034  1
 O  O15  1  0.21455  0.79723  0.83139  1
 O  O16  1  0.36052  0.48984  0.81134  1
