CIF file written using JARVIS-Tools package.
data_Co2C
_symmetry_space_group_name_H-M  'Pnnm'
_cell_length_a       2.88656
_cell_length_b       4.36515
_cell_length_c       4.36287
_cell_angle_alpha    90
_cell_angle_beta     90
_cell_angle_gamma    90

_symmetry_Int_Tables_number  58
_chemical_formula_structural  Co2C
_chemical_formula_sum  Co4C2
_cell_volume  54.973261457615095
_cell_formula_units_Z  2
loop_
  _symmetry_equiv_pos_site_id
 _symmetry_equiv_pos_as_xyz
 1  'x, y, z'
loop_
 _atom_site_type_symbol
 _atom_site_label
 _atom_site_symmetry_multiplicity
 _atom_site_fract_x
 _atom_site_fract_y
 _atom_site_fract_z
 _atom_site_fract_occupancy
 C  C1  1  0.00000  0.00000  0.00000  1
 C  C2  1  0.50000  0.50000  0.50000  1
 Co  Co1  1  0.00000  0.74375  0.64728  1
 Co  Co2  1  0.00000  0.25625  0.35272  1
 Co  Co3  1  0.50000  0.24375  0.85272  1
 Co  Co4  1  0.50000  0.75625  0.14728  1
