CIF file written using JARVIS-Tools package.
data_HoMnGe
_symmetry_space_group_name_H-M  'Pnma'
_cell_length_a       4.07888
_cell_length_b       7.00775
_cell_length_c       7.84386
_cell_angle_alpha    90
_cell_angle_beta     90
_cell_angle_gamma    90

_symmetry_Int_Tables_number  62
_chemical_formula_structural  HoMnGe
_chemical_formula_sum  Ho4Mn4Ge4
_cell_volume  224.20744673095797
_cell_formula_units_Z  4
loop_
  _symmetry_equiv_pos_site_id
 _symmetry_equiv_pos_as_xyz
 1  'x, y, z'
loop_
 _atom_site_type_symbol
 _atom_site_label
 _atom_site_symmetry_multiplicity
 _atom_site_fract_x
 _atom_site_fract_y
 _atom_site_fract_z
 _atom_site_fract_occupancy
 Ge  Ge1  1  0.25000  0.27411  0.61715  1
 Ge  Ge2  1  0.75000  0.22589  0.11715  1
 Ge  Ge3  1  0.25000  0.77411  0.88285  1
 Ge  Ge4  1  0.75000  0.72589  0.38285  1
 Ho  Ho1  1  0.25000  0.52256  0.18369  1
 Ho  Ho2  1  0.75000  0.47744  0.81631  1
 Ho  Ho3  1  0.25000  0.02256  0.31631  1
 Ho  Ho4  1  0.75000  0.97744  0.68369  1
 Mn  Mn1  1  0.75000  0.36676  0.44376  1
 Mn  Mn2  1  0.25000  0.13324  0.94376  1
 Mn  Mn3  1  0.75000  0.86676  0.05624  1
 Mn  Mn4  1  0.25000  0.63324  0.55624  1
