CIF file written using JARVIS-Tools package.
data_Sm6GaCo2
_symmetry_space_group_name_H-M  'Immm'
_cell_length_a       8.38454
_cell_length_b       8.38454
_cell_length_c       8.38454
_cell_angle_alpha    109.076
_cell_angle_beta     106.957
_cell_angle_gamma    112.429

_symmetry_Int_Tables_number  71
_chemical_formula_structural  Sm6GaCo2
_chemical_formula_sum  Sm2Ga2Co4
_cell_volume  452.6902116971128
_cell_formula_units_Z  2
loop_
  _symmetry_equiv_pos_site_id
 _symmetry_equiv_pos_as_xyz
 1  'x, y, z'
loop_
 _atom_site_type_symbol
 _atom_site_label
 _atom_site_symmetry_multiplicity
 _atom_site_fract_x
 _atom_site_fract_y
 _atom_site_fract_z
 _atom_site_fract_occupancy
 Co  Co1  1  0.88675  0.00000  0.88675  1
 Co  Co2  1  0.11325  0.00000  0.11325  1
 Co  Co3  1  0.50000  0.16374  0.66374  1
 Co  Co4  1  0.50000  0.83626  0.33626  1
 Ga  Ga1  1  0.00000  0.50000  0.50000  1
 Ga  Ga2  1  0.50000  0.50000  0.00000  1
 Sm  Sm1  1  0.73825  0.69618  0.43443  1
 Sm  Sm2  1  0.78062  0.96149  0.18087  1
 Sm  Sm3  1  0.21938  0.40025  0.18087  1
 Sm  Sm4  1  0.73825  0.30382  0.04207  1
 Sm  Sm5  1  0.86183  0.18746  0.67437  1
 Sm  Sm6  1  0.26175  0.30382  0.56557  1
 Sm  Sm7  1  0.48690  0.81254  0.67437  1
 Sm  Sm8  1  0.78062  0.59975  0.81913  1
 Sm  Sm9  1  0.21938  0.03851  0.81913  1
 Sm  Sm10  1  0.26175  0.69618  0.95793  1
 Sm  Sm11  1  0.13817  0.81254  0.32563  1
 Sm  Sm12  1  0.51310  0.18746  0.32563  1
