CIF file written using JARVIS-Tools package.
data_K2Mg2O3
_symmetry_space_group_name_H-M  'P4_32_12'
_cell_length_a       6.44398
_cell_length_b       6.44398
_cell_length_c       10.3061
_cell_angle_alpha    90
_cell_angle_beta     90
_cell_angle_gamma    90

_symmetry_Int_Tables_number  96
_chemical_formula_structural  K2Mg2O3
_chemical_formula_sum  K8Mg8O2
_cell_volume  427.95864168135324
_cell_formula_units_Z  4
loop_
  _symmetry_equiv_pos_site_id
 _symmetry_equiv_pos_as_xyz
 1  'x, y, z'
loop_
 _atom_site_type_symbol
 _atom_site_label
 _atom_site_symmetry_multiplicity
 _atom_site_fract_x
 _atom_site_fract_y
 _atom_site_fract_z
 _atom_site_fract_occupancy
 K  K1  1  0.93241  0.73583  0.36019  1
 K  K2  1  0.26417  0.06759  0.13981  1
 K  K3  1  0.23583  0.56759  0.61019  1
 K  K4  1  0.56759  0.23583  0.38981  1
 K  K5  1  0.43241  0.76417  0.88981  1
 K  K6  1  0.76417  0.43241  0.11019  1
 K  K7  1  0.73583  0.93241  0.63981  1
 K  K8  1  0.06759  0.26417  0.86019  1
 Mg  Mg1  1  0.57214  0.27766  0.86749  1
 Mg  Mg2  1  0.92786  0.77766  0.88251  1
 Mg  Mg3  1  0.27766  0.57214  0.13251  1
 Mg  Mg4  1  0.22234  0.07214  0.61749  1
 Mg  Mg5  1  0.42786  0.72234  0.36749  1
 Mg  Mg6  1  0.77766  0.92786  0.11749  1
 Mg  Mg7  1  0.07214  0.22234  0.38251  1
 Mg  Mg8  1  0.72234  0.42786  0.63251  1
 O  O1  1  0.76317  0.52960  0.81559  1
 O  O2  1  0.61867  0.61867  0.50000  1
 O  O3  1  0.97040  0.26317  0.56559  1
 O  O4  1  0.38133  0.38133  0.00000  1
 O  O5  1  0.23683  0.47040  0.31559  1
 O  O6  1  0.26317  0.97040  0.43441  1
 O  O7  1  0.11867  0.88133  0.75000  1
 O  O8  1  0.52960  0.76317  0.18441  1
 O  O9  1  0.47040  0.23683  0.68441  1
 O  O10  1  0.88133  0.11867  0.25000  1
 O  O11  1  0.73683  0.02960  0.93441  1
 O  O12  1  0.02960  0.73683  0.06559  1
