CIF file written using JARVIS-Tools package.
data_Na3CdPCO7
_symmetry_space_group_name_H-M  'P2_1/m'
_cell_length_a       5.182
_cell_length_b       6.86728
_cell_length_c       9.17635
_cell_angle_alpha    90
_cell_angle_beta     90.3748
_cell_angle_gamma    90

_symmetry_Int_Tables_number  11
_chemical_formula_structural  Na3CdPCO7
_chemical_formula_sum  Na6Cd2P2C2O4
_cell_volume  326.545408806711
_cell_formula_units_Z  2
loop_
  _symmetry_equiv_pos_site_id
 _symmetry_equiv_pos_as_xyz
 1  'x, y, z'
loop_
 _atom_site_type_symbol
 _atom_site_label
 _atom_site_symmetry_multiplicity
 _atom_site_fract_x
 _atom_site_fract_y
 _atom_site_fract_z
 _atom_site_fract_occupancy
 C  C1  1  0.73667  0.75000  0.05965  1
 C  C2  1  0.26333  0.25000  0.94035  1
 Cd  Cd1  1  0.76781  0.75000  0.37086  1
 Cd  Cd2  1  0.23219  0.25000  0.62914  1
 Na  Na1  1  0.76024  0.25000  0.08323  1
 Na  Na2  1  0.24157  -0.00253  0.25223  1
 Na  Na3  1  0.24157  0.50253  0.25223  1
 Na  Na4  1  0.75843  0.49747  0.74777  1
 Na  Na5  1  0.75843  0.00253  0.74777  1
 Na  Na6  1  0.23976  0.75000  0.91677  1
 O  O1  1  0.79757  0.42916  0.31728  1
 O  O2  1  0.79757  0.07084  0.31728  1
 O  O3  1  0.03493  0.25000  0.88122  1
 O  O4  1  0.96507  0.75000  0.11878  1
 O  O5  1  0.28920  0.25000  0.08094  1
 O  O6  1  0.53195  0.75000  0.14179  1
 O  O7  1  0.20172  0.75000  0.43417  1
 O  O8  1  0.46805  0.25000  0.85821  1
 O  O9  1  0.59915  0.75000  0.59255  1
 O  O10  1  0.20243  0.57084  0.68272  1
 O  O11  1  0.20243  0.92916  0.68272  1
 O  O12  1  0.40085  0.25000  0.40745  1
 O  O13  1  0.79828  0.25000  0.56583  1
 O  O14  1  0.71080  0.75000  0.91906  1
 P  P1  1  0.70237  0.25000  0.40532  1
 P  P2  1  0.29763  0.75000  0.59468  1
