CIF file written using JARVIS-Tools package.
data_Na2HgTe
_symmetry_space_group_name_H-M  'R-3m'
_cell_length_a       13.1153
_cell_length_b       9.27357
_cell_length_c       9.27354
_cell_angle_alpha    33.6328
_cell_angle_beta     19.5239
_cell_angle_gamma    19.5239

_symmetry_Int_Tables_number  166
_chemical_formula_structural  Na2HgTe
_chemical_formula_sum  Na2HgTe
_cell_volume  109.18740204923847
_cell_formula_units_Z  1
loop_
  _symmetry_equiv_pos_site_id
 _symmetry_equiv_pos_as_xyz
 1  'x, y, z'
loop_
 _atom_site_type_symbol
 _atom_site_label
 _atom_site_symmetry_multiplicity
 _atom_site_fract_x
 _atom_site_fract_y
 _atom_site_fract_z
 _atom_site_fract_occupancy
 Hg  Hg1  1  0.50000  1.00000  1.00000  1
 Na  Na1  1  0.75038  0.99976  0.99977  1
 Na  Na2  1  0.24962  0.00024  0.00023  1
 Te  Te1  1  1.00000  0.00000  0.00000  1
