CIF file written using JARVIS-Tools package.
data_Ba2Ti3Tl2O10
_symmetry_space_group_name_H-M  'P1'
_cell_length_a       3.97206
_cell_length_b       3.97802
_cell_length_c       16.3358
_cell_angle_alpha    90.8397
_cell_angle_beta     92.4704
_cell_angle_gamma    89.9525

_symmetry_Int_Tables_number  1
_chemical_formula_structural  Ba2Ti3Tl2O10
_chemical_formula_sum  Ba2Ti3Tl2O0
_cell_volume  257.8531336375284
_cell_formula_units_Z  1
loop_
  _symmetry_equiv_pos_site_id
 _symmetry_equiv_pos_as_xyz
 1  'x, y, z'
loop_
 _atom_site_type_symbol
 _atom_site_label
 _atom_site_symmetry_multiplicity
 _atom_site_fract_x
 _atom_site_fract_y
 _atom_site_fract_z
 _atom_site_fract_occupancy
 Ba  Ba1  1  0.82067  0.77302  0.25857  1
 Ba  Ba2  1  0.28349  0.29759  0.73863  1
 O  O1  1  0.78372  0.30495  0.86861  1
 O  O2  1  0.51052  0.78014  0.47132  1
 O  O3  1  0.27609  0.80383  0.84682  1
 O  O4  1  0.76102  0.79655  0.72682  1
 O  O5  1  0.29857  0.30725  0.00794  1
 O  O6  1  0.80499  0.29448  0.11492  1
 O  O7  1  0.33907  0.29620  0.24889  1
 O  O8  1  0.30514  0.79403  0.13964  1
 O  O9  1  0.05226  0.28750  0.58480  1
 O  O10  1  0.79242  0.80839  0.97497  1
 Ti  Ti1  1  0.74645  0.32081  0.99528  1
 Ti  Ti2  1  0.30382  0.24399  0.13439  1
 Ti  Ti3  1  0.82763  0.80573  0.85951  1
 Tl  Tl1  1  0.77183  0.78798  0.58600  1
 Tl  Tl2  1  0.17183  0.27886  0.43595  1
