CIF file written using JARVIS-Tools package.
data_Yb2SrS4
_symmetry_space_group_name_H-M  'I-42d'
_cell_length_a       7.38314
_cell_length_b       7.38314
_cell_length_c       7.38314
_cell_angle_alpha    110.771
_cell_angle_beta     110.771
_cell_angle_gamma    106.901

_symmetry_Int_Tables_number  122
_chemical_formula_structural  Yb2SrS4
_chemical_formula_sum  Yb4Sr2S8
_cell_volume  309.34856596108943
_cell_formula_units_Z  2
loop_
  _symmetry_equiv_pos_site_id
 _symmetry_equiv_pos_as_xyz
 1  'x, y, z'
loop_
 _atom_site_type_symbol
 _atom_site_label
 _atom_site_symmetry_multiplicity
 _atom_site_fract_x
 _atom_site_fract_y
 _atom_site_fract_z
 _atom_site_fract_occupancy
 S  S1  1  0.03206  0.85453  0.51157  1
 S  S2  1  0.02049  0.34296  0.48843  1
 S  S3  1  0.14547  0.15704  0.17753  1
 S  S4  1  0.35453  0.53206  0.01157  1
 S  S5  1  0.65704  0.64547  0.67753  1
 S  S6  1  0.46794  0.97951  0.82247  1
 S  S7  1  0.47951  0.96794  0.32247  1
 S  S8  1  0.84296  0.52049  0.98843  1
 Sr  Sr1  1  0.62500  0.37500  0.25000  1
 Sr  Sr2  1  0.87500  0.12500  0.75000  1
 Yb  Yb1  1  0.12555  0.75000  0.87555  1
 Yb  Yb2  1  0.25000  0.62555  0.37555  1
 Yb  Yb3  1  0.37445  0.25000  0.62445  1
 Yb  Yb4  1  0.75000  0.87445  0.12445  1
