CIF file written using JARVIS-Tools package.
data_MgNi3B2
_symmetry_space_group_name_H-M  'P6_422'
_cell_length_a       4.88362
_cell_length_b       4.88362
_cell_length_c       8.79118
_cell_angle_alpha    90
_cell_angle_beta     90
_cell_angle_gamma    120

_symmetry_Int_Tables_number  181
_chemical_formula_structural  MgNi3B2
_chemical_formula_sum  Mg3Ni9B6
_cell_volume  181.57709752349123
_cell_formula_units_Z  3
loop_
  _symmetry_equiv_pos_site_id
 _symmetry_equiv_pos_as_xyz
 1  'x, y, z'
loop_
 _atom_site_type_symbol
 _atom_site_label
 _atom_site_symmetry_multiplicity
 _atom_site_fract_x
 _atom_site_fract_y
 _atom_site_fract_z
 _atom_site_fract_occupancy
 B  B1  1  0.22100  0.61050  0.83333  1
 B  B2  1  0.38950  0.61050  0.16667  1
 B  B3  1  0.61050  0.38950  0.16667  1
 B  B4  1  0.77900  0.38950  0.83333  1
 B  B5  1  0.38950  0.77900  0.50000  1
 B  B6  1  0.61050  0.22100  0.50000  1
 Mg  Mg1  1  0.00000  0.00000  0.50000  1
 Mg  Mg2  1  0.00000  0.00000  0.16667  1
 Mg  Mg3  1  0.00000  0.00000  0.83333  1
 Ni  Ni1  1  0.50000  0.00000  0.00000  1
 Ni  Ni2  1  0.00000  0.50000  0.04267  1
 Ni  Ni3  1  0.50000  0.00000  0.70933  1
 Ni  Ni4  1  0.00000  0.50000  0.62400  1
 Ni  Ni5  1  0.50000  0.50000  0.66667  1
 Ni  Ni6  1  0.50000  0.50000  0.37600  1
 Ni  Ni7  1  0.00000  0.50000  0.33333  1
 Ni  Ni8  1  0.50000  0.50000  0.95733  1
 Ni  Ni9  1  0.50000  0.00000  0.29067  1
