CIF file written using JARVIS-Tools package.
data_Hg4OF6
_symmetry_space_group_name_H-M  'P6_3mc'
_cell_length_a       7.86141
_cell_length_b       7.86141
_cell_length_c       6.11373
_cell_angle_alpha    90
_cell_angle_beta     90
_cell_angle_gamma    120

_symmetry_Int_Tables_number  186
_chemical_formula_structural  Hg4OF6
_chemical_formula_sum  Hg8O2F2
_cell_volume  327.2178950660755
_cell_formula_units_Z  2
loop_
  _symmetry_equiv_pos_site_id
 _symmetry_equiv_pos_as_xyz
 1  'x, y, z'
loop_
 _atom_site_type_symbol
 _atom_site_label
 _atom_site_symmetry_multiplicity
 _atom_site_fract_x
 _atom_site_fract_y
 _atom_site_fract_z
 _atom_site_fract_occupancy
 F  F1  1  0.92341  0.46170  0.72534  1
 F  F2  1  0.53830  0.46170  0.72534  1
 F  F3  1  0.12682  0.25363  0.89659  1
 F  F4  1  0.12682  0.87318  0.89659  1
 F  F5  1  0.87318  0.12682  0.39659  1
 F  F6  1  0.25363  0.12682  0.39659  1
 F  F7  1  0.74637  0.87318  0.89659  1
 F  F8  1  0.53830  0.07659  0.72534  1
 F  F9  1  0.46170  0.53830  0.22534  1
 F  F10  1  0.07659  0.53830  0.22534  1
 F  F11  1  0.46170  0.92341  0.22534  1
 F  F12  1  0.87318  0.74637  0.39659  1
 Hg  Hg1  1  0.63595  0.81798  0.50107  1
 Hg  Hg2  1  0.81798  0.63595  0.00107  1
 Hg  Hg3  1  0.81798  0.18202  0.00107  1
 Hg  Hg4  1  0.18202  0.81798  0.50107  1
 Hg  Hg5  1  0.18202  0.36405  0.50107  1
 Hg  Hg6  1  0.36405  0.18202  0.00107  1
 Hg  Hg7  1  0.33333  0.66667  0.97567  1
 Hg  Hg8  1  0.66667  0.33333  0.47567  1
 O  O1  1  0.33333  0.66667  0.62622  1
 O  O2  1  0.66667  0.33333  0.12622  1
