CIF file written using JARVIS-Tools package.
data_Li2CuSbP2O8
_symmetry_space_group_name_H-M  'P2_1/m'
_cell_length_a       4.76521
_cell_length_b       6.89564
_cell_length_c       10.3545
_cell_angle_alpha    90
_cell_angle_beta     99.24
_cell_angle_gamma    90

_symmetry_Int_Tables_number  11
_chemical_formula_structural  Li2CuSbP2O8
_chemical_formula_sum  Li4Cu2Sb2P4O6
_cell_volume  335.8240510728103
_cell_formula_units_Z  2
loop_
  _symmetry_equiv_pos_site_id
 _symmetry_equiv_pos_as_xyz
 1  'x, y, z'
loop_
 _atom_site_type_symbol
 _atom_site_label
 _atom_site_symmetry_multiplicity
 _atom_site_fract_x
 _atom_site_fract_y
 _atom_site_fract_z
 _atom_site_fract_occupancy
 Cu  Cu1  1  0.96768  0.25000  0.26025  1
 Cu  Cu2  1  0.03232  0.75000  0.73975  1
 Li  Li1  1  0.00000  0.00000  0.00000  1
 Li  Li2  1  0.00000  0.50000  0.00000  1
 Li  Li3  1  0.50000  0.00000  0.50000  1
 Li  Li4  1  0.50000  0.50000  0.50000  1
 O  O1  1  0.71637  0.75000  0.07629  1
 O  O2  1  0.23571  0.75000  0.92097  1
 O  O3  1  0.32648  0.06577  0.13251  1
 O  O4  1  0.32648  0.43423  0.13251  1
 O  O5  1  0.74040  0.57560  0.35140  1
 O  O6  1  0.74040  0.92440  0.35140  1
 O  O7  1  0.76429  0.25000  0.07903  1
 O  O8  1  0.19126  0.25000  0.43139  1
 O  O9  1  0.80874  0.75000  0.56861  1
 O  O10  1  0.77815  0.25000  0.56548  1
 O  O11  1  0.67352  0.56577  0.86749  1
 O  O12  1  0.25960  0.42440  0.64860  1
 O  O13  1  0.22185  0.75000  0.43452  1
 O  O14  1  0.67352  0.93423  0.86749  1
 O  O15  1  0.25960  0.07560  0.64860  1
 O  O16  1  0.28363  0.25000  0.92371  1
 P  P1  1  0.43747  0.25000  0.07368  1
 P  P2  1  0.90152  0.75000  0.43278  1
 P  P3  1  0.09848  0.25000  0.56722  1
 P  P4  1  0.56253  0.75000  0.92632  1
 Sb  Sb1  1  0.55867  0.25000  0.78142  1
 Sb  Sb2  1  0.44133  0.75000  0.21858  1
