CIF file written using JARVIS-Tools package.
data_LiFeO2
_symmetry_space_group_name_H-M  'P6_3mc'
_cell_length_a       2.807
_cell_length_b       2.807
_cell_length_c       9.60271
_cell_angle_alpha    90
_cell_angle_beta     90
_cell_angle_gamma    120

_symmetry_Int_Tables_number  186
_chemical_formula_structural  LiFeO2
_chemical_formula_sum  Li2Fe2O4
_cell_volume  65.52496099226161
_cell_formula_units_Z  2
loop_
  _symmetry_equiv_pos_site_id
 _symmetry_equiv_pos_as_xyz
 1  'x, y, z'
loop_
 _atom_site_type_symbol
 _atom_site_label
 _atom_site_symmetry_multiplicity
 _atom_site_fract_x
 _atom_site_fract_y
 _atom_site_fract_z
 _atom_site_fract_occupancy
 Fe  Fe1  1  0.33333  0.66667  0.49946  1
 Fe  Fe2  1  0.66667  0.33333  0.99946  1
 Li  Li1  1  0.33333  0.66667  0.24187  1
 Li  Li2  1  0.66667  0.33333  0.74187  1
 O  O1  1  0.33333  0.66667  0.88798  1
 O  O2  1  0.00000  0.00000  0.11175  1
 O  O3  1  0.00000  0.00000  0.61176  1
 O  O4  1  0.66667  0.33333  0.38798  1
