CIF file written using JARVIS-Tools package.
data_Mn3OF5
_symmetry_space_group_name_H-M  'Pmn2_1'
_cell_length_a       4.76829
_cell_length_b       9.76087
_cell_length_c       4.78903
_cell_angle_alpha    90
_cell_angle_beta     89.9977
_cell_angle_gamma    90

_symmetry_Int_Tables_number  31
_chemical_formula_structural  Mn3OF5
_chemical_formula_sum  Mn6O2F0
_cell_volume  222.89442066761166
_cell_formula_units_Z  2
loop_
  _symmetry_equiv_pos_site_id
 _symmetry_equiv_pos_as_xyz
 1  'x, y, z'
loop_
 _atom_site_type_symbol
 _atom_site_label
 _atom_site_symmetry_multiplicity
 _atom_site_fract_x
 _atom_site_fract_y
 _atom_site_fract_z
 _atom_site_fract_occupancy
 F  F1  1  0.18592  0.82375  0.19035  1
 F  F2  1  0.22792  0.50000  0.21244  1
 F  F3  1  0.79209  0.16759  0.80466  1
 F  F4  1  0.70791  0.66759  0.30466  1
 F  F5  1  0.79209  0.83241  0.80466  1
 F  F6  1  0.27207  0.00000  0.71244  1
 F  F7  1  0.31408  0.67625  0.69035  1
 F  F8  1  0.31408  0.32375  0.69035  1
 F  F9  1  0.18592  0.17625  0.19035  1
 F  F10  1  0.70791  0.33241  0.30466  1
 Mn  Mn1  1  0.53117  0.50000  0.52345  1
 Mn  Mn2  1  0.50340  0.84255  0.48421  1
 Mn  Mn3  1  0.50340  0.15745  0.48421  1
 Mn  Mn4  1  0.99660  0.34256  0.98421  1
 Mn  Mn5  1  0.99660  0.65744  0.98421  1
 Mn  Mn6  1  0.96882  0.00000  0.02346  1
 O  O1  1  0.67905  0.00000  0.30568  1
 O  O2  1  0.82095  0.50000  0.80568  1
