CIF file written using JARVIS-Tools package.
data_KNbPCO7
_symmetry_space_group_name_H-M  'P2_1'
_cell_length_a       5.04361
_cell_length_b       6.45617
_cell_length_c       9.71443
_cell_angle_alpha    90
_cell_angle_beta     81.5361
_cell_angle_gamma    90

_symmetry_Int_Tables_number  4
_chemical_formula_structural  KNbPCO7
_chemical_formula_sum  K2Nb2P2C2O4
_cell_volume  312.8798248979493
_cell_formula_units_Z  2
loop_
  _symmetry_equiv_pos_site_id
 _symmetry_equiv_pos_as_xyz
 1  'x, y, z'
loop_
 _atom_site_type_symbol
 _atom_site_label
 _atom_site_symmetry_multiplicity
 _atom_site_fract_x
 _atom_site_fract_y
 _atom_site_fract_z
 _atom_site_fract_occupancy
 C  C1  1  0.47719  0.24440  0.07296  1
 C  C2  1  0.52281  0.74440  0.92704  1
 K  K1  1  0.90396  0.65165  0.15777  1
 K  K2  1  0.09604  0.15165  0.84223  1
 Nb  Nb1  1  0.26697  0.22610  0.32930  1
 Nb  Nb2  1  0.73303  0.72610  0.67070  1
 O  O1  1  0.42756  0.74222  0.05177  1
 O  O2  1  0.21117  0.24176  0.11935  1
 O  O3  1  0.78883  0.74176  0.88065  1
 O  O4  1  0.28038  0.91936  0.34102  1
 O  O5  1  0.27445  0.53887  0.34329  1
 O  O6  1  0.61657  0.24825  0.17870  1
 O  O7  1  0.61606  0.72752  0.46343  1
 O  O8  1  0.72555  0.03887  0.65671  1
 O  O9  1  0.12796  0.73323  0.56916  1
 O  O10  1  0.87204  0.23323  0.43084  1
 O  O11  1  0.71962  0.41936  0.65898  1
 O  O12  1  0.38343  0.74825  0.82130  1
 O  O13  1  0.38394  0.22752  0.53657  1
 O  O14  1  0.57244  0.24222  -0.05177  1
 P  P1  1  0.67491  0.22877  0.56616  1
 P  P2  1  0.32509  0.72877  0.43384  1
