CIF file written using JARVIS-Tools package.
data_BiSbO3
_symmetry_space_group_name_H-M  'P-1'
_cell_length_a       6.93755
_cell_length_b       5.6357
_cell_length_c       6.1204
_cell_angle_alpha    60.1957
_cell_angle_beta     126.123
_cell_angle_gamma    117.359

_symmetry_Int_Tables_number  2
_chemical_formula_structural  BiSbO3
_chemical_formula_sum  Bi2Sb2O6
_cell_volume  162.9203010104024
_cell_formula_units_Z  2
loop_
  _symmetry_equiv_pos_site_id
 _symmetry_equiv_pos_as_xyz
 1  'x, y, z'
loop_
 _atom_site_type_symbol
 _atom_site_label
 _atom_site_symmetry_multiplicity
 _atom_site_fract_x
 _atom_site_fract_y
 _atom_site_fract_z
 _atom_site_fract_occupancy
 Bi  Bi1  1  0.87878  0.12749  0.60648  1
 Bi  Bi2  1  0.12123  0.87251  0.39352  1
 O  O1  1  0.04734  0.77178  0.74018  1
 O  O2  1  0.50400  0.98098  0.79624  1
 O  O3  1  0.24808  0.45582  0.75082  1
 O  O4  1  0.75192  0.54418  0.24917  1
 O  O5  1  0.49600  0.01902  0.20376  1
 O  O6  1  0.95266  0.22822  0.25982  1
 Sb  Sb1  1  0.61779  0.35103  0.91768  1
 Sb  Sb2  1  0.38221  0.64897  0.08232  1
