CIF file written using JARVIS-Tools package.
data_Li2FeO2
_symmetry_space_group_name_H-M  'Immm'
_cell_length_a       5.0801
_cell_length_b       5.0801
_cell_length_c       5.0801
_cell_angle_alpha    135.949
_cell_angle_beta     148.328
_cell_angle_gamma    55.2646

_symmetry_Int_Tables_number  71
_chemical_formula_structural  Li2FeO2
_chemical_formula_sum  Li2FeO2
_cell_volume  47.546166117732895
_cell_formula_units_Z  1
loop_
  _symmetry_equiv_pos_site_id
 _symmetry_equiv_pos_as_xyz
 1  'x, y, z'
loop_
 _atom_site_type_symbol
 _atom_site_label
 _atom_site_symmetry_multiplicity
 _atom_site_fract_x
 _atom_site_fract_y
 _atom_site_fract_z
 _atom_site_fract_occupancy
 Fe  Fe1  1  -0.00000  0.50000  0.50000  1
 Li  Li1  1  0.30279  0.80279  0.50000  1
 Li  Li2  1  0.69721  0.19721  0.50000  1
 O  O1  1  0.35493  0.35493  0.00000  1
 O  O2  1  0.64507  0.64507  -0.00000  1
