CIF file written using JARVIS-Tools package.
data_Cr2CoS4
_symmetry_space_group_name_H-M  'Fd-3m'
_cell_length_a       6.90424
_cell_length_b       6.90424
_cell_length_c       6.90424
_cell_angle_alpha    60
_cell_angle_beta     60
_cell_angle_gamma    60

_symmetry_Int_Tables_number  227
_chemical_formula_structural  Cr2CoS4
_chemical_formula_sum  Cr4Co2S8
_cell_volume  232.71954608402697
_cell_formula_units_Z  2
loop_
  _symmetry_equiv_pos_site_id
 _symmetry_equiv_pos_as_xyz
 1  'x, y, z'
loop_
 _atom_site_type_symbol
 _atom_site_label
 _atom_site_symmetry_multiplicity
 _atom_site_fract_x
 _atom_site_fract_y
 _atom_site_fract_z
 _atom_site_fract_occupancy
 Co  Co1  1  0.12500  0.12500  0.12500  1
 Co  Co2  1  0.87500  0.87500  0.87500  1
 Cr  Cr1  1  0.50000  0.50000  0.00000  1
 Cr  Cr2  1  0.00000  0.50000  0.50000  1
 Cr  Cr3  1  0.50000  0.00000  0.50000  1
 Cr  Cr4  1  0.50000  0.50000  0.50000  1
 S  S1  1  0.73279  0.25574  0.25574  1
 S  S2  1  0.26721  0.74426  0.74426  1
 S  S3  1  0.74426  0.74426  0.74426  1
 S  S4  1  0.25574  0.25574  0.73279  1
 S  S5  1  0.74426  0.26721  0.74426  1
 S  S6  1  0.25574  0.73279  0.25574  1
 S  S7  1  0.74426  0.74426  0.26721  1
 S  S8  1  0.25574  0.25574  0.25574  1
