CIF file written using JARVIS-Tools package.
data_ScOF
_symmetry_space_group_name_H-M  'P2_1/c'
_cell_length_a       5.19043
_cell_length_b       5.17485
_cell_length_c       5.26101
_cell_angle_alpha    90
_cell_angle_beta     99.5366
_cell_angle_gamma    90

_symmetry_Int_Tables_number  14
_chemical_formula_structural  ScOF
_chemical_formula_sum  Sc4O4F4
_cell_volume  139.35613660463486
_cell_formula_units_Z  4
loop_
  _symmetry_equiv_pos_site_id
 _symmetry_equiv_pos_as_xyz
 1  'x, y, z'
loop_
 _atom_site_type_symbol
 _atom_site_label
 _atom_site_symmetry_multiplicity
 _atom_site_fract_x
 _atom_site_fract_y
 _atom_site_fract_z
 _atom_site_fract_occupancy
 F  F1  1  0.05894  0.67011  0.33711  1
 F  F2  1  0.94106  0.17011  0.16289  1
 F  F3  1  0.94106  0.32989  0.66289  1
 F  F4  1  0.05894  0.82989  0.83711  1
 O  O1  1  0.45548  0.25411  0.98790  1
 O  O2  1  0.54452  0.75411  0.51210  1
 O  O3  1  0.54452  0.74589  0.01210  1
 O  O4  1  0.45548  0.24589  0.48790  1
 Sc  Sc1  1  0.30791  0.52735  0.71292  1
 Sc  Sc2  1  0.69209  0.02735  0.78708  1
 Sc  Sc3  1  0.69209  0.47265  0.28708  1
 Sc  Sc4  1  0.30791  0.97265  0.21292  1
