CIF file written using JARVIS-Tools package.
data_Ca2Ge
_symmetry_space_group_name_H-M  'Pnma'
_cell_length_a       4.82926
_cell_length_b       7.58128
_cell_length_c       8.99042
_cell_angle_alpha    90
_cell_angle_beta     90
_cell_angle_gamma    90

_symmetry_Int_Tables_number  62
_chemical_formula_structural  Ca2Ge
_chemical_formula_sum  Ca8Ge4
_cell_volume  329.1567268415334
_cell_formula_units_Z  4
loop_
  _symmetry_equiv_pos_site_id
 _symmetry_equiv_pos_as_xyz
 1  'x, y, z'
loop_
 _atom_site_type_symbol
 _atom_site_label
 _atom_site_symmetry_multiplicity
 _atom_site_fract_x
 _atom_site_fract_y
 _atom_site_fract_z
 _atom_site_fract_occupancy
 Ca  Ca1  1  0.75000  0.34513  0.07565  1
 Ca  Ca2  1  0.25000  0.65487  0.92435  1
 Ca  Ca3  1  0.75000  0.84513  0.42435  1
 Ca  Ca4  1  0.25000  0.15487  0.57565  1
 Ca  Ca5  1  0.75000  0.48095  0.67908  1
 Ca  Ca6  1  0.25000  0.51905  0.32092  1
 Ca  Ca7  1  0.75000  0.98095  0.82092  1
 Ca  Ca8  1  0.25000  0.01905  0.17908  1
 Ge  Ge1  1  0.75000  0.74755  0.10329  1
 Ge  Ge2  1  0.25000  0.25245  0.89671  1
 Ge  Ge3  1  0.75000  0.24755  0.39671  1
 Ge  Ge4  1  0.25000  0.75245  0.60329  1
