CIF file written using JARVIS-Tools package.
data_Te3WO12
_symmetry_space_group_name_H-M  'P-1'
_cell_length_a       5.01121
_cell_length_b       5.28646
_cell_length_c       7.2829
_cell_angle_alpha    85.7532
_cell_angle_beta     89.9314
_cell_angle_gamma    89.9754

_symmetry_Int_Tables_number  2
_chemical_formula_structural  Te3WO12
_chemical_formula_sum  Te3WO2
_cell_volume  192.4052767706355
_cell_formula_units_Z  1
loop_
  _symmetry_equiv_pos_site_id
 _symmetry_equiv_pos_as_xyz
 1  'x, y, z'
loop_
 _atom_site_type_symbol
 _atom_site_label
 _atom_site_symmetry_multiplicity
 _atom_site_fract_x
 _atom_site_fract_y
 _atom_site_fract_z
 _atom_site_fract_occupancy
 O  O1  1  0.67983  0.18762  0.57511  1
 O  O2  1  0.87533  0.00458  0.25319  1
 O  O3  1  0.68772  0.82109  0.94340  1
 O  O4  1  0.81985  0.68742  0.57541  1
 O  O5  1  0.18746  0.69486  0.06584  1
 O  O6  1  0.64128  0.50568  0.25367  1
 O  O7  1  0.35872  0.50803  0.75318  1
 O  O8  1  0.81256  0.31884  0.94101  1
 O  O9  1  0.18013  0.32629  0.43144  1
 O  O10  1  0.31229  0.19260  0.06346  1
 O  O11  1  0.12466  0.00912  0.75366  1
 O  O12  1  0.32017  0.82609  0.43175  1
 Te  Te1  1  -0.00001  0.00686  0.50342  1
 Te  Te2  1  0.50001  0.50684  0.00342  1
 Te  Te3  1  0.50000  0.50685  0.50342  1
 W  W1  1  0.00001  0.00684  0.00343  1
