CIF file written using JARVIS-Tools package.
data_Ge2N2O
_symmetry_space_group_name_H-M  'Cmc2_1'
_cell_length_a       5.17296
_cell_length_b       5.52298
_cell_length_c       5.52298
_cell_angle_alpha    116.608
_cell_angle_beta     90
_cell_angle_gamma    90

_symmetry_Int_Tables_number  36
_chemical_formula_structural  Ge2N2O
_chemical_formula_sum  Ge4N4O2
_cell_volume  141.08138252728722
_cell_formula_units_Z  2
loop_
  _symmetry_equiv_pos_site_id
 _symmetry_equiv_pos_as_xyz
 1  'x, y, z'
loop_
 _atom_site_type_symbol
 _atom_site_label
 _atom_site_symmetry_multiplicity
 _atom_site_fract_x
 _atom_site_fract_y
 _atom_site_fract_z
 _atom_site_fract_occupancy
 Ge  Ge1  1  0.38290  0.98225  0.33055  1
 Ge  Ge2  1  0.88290  0.01775  0.66945  1
 Ge  Ge3  1  0.88290  0.66945  0.01775  1
 Ge  Ge4  1  0.38290  0.33055  0.98225  1
 N  N1  1  0.23375  0.66579  0.07486  1
 N  N2  1  0.73375  0.33421  0.92514  1
 N  N3  1  0.73375  0.92514  0.33421  1
 N  N4  1  0.23375  0.07486  0.66579  1
 O  O1  1  0.29470  0.25168  0.25168  1
 O  O2  1  0.79470  0.74832  0.74832  1
