CIF file written using JARVIS-Tools package.
data_CaHClO
_symmetry_space_group_name_H-M  'P6_3mc'
_cell_length_a       3.86208
_cell_length_b       3.86208
_cell_length_c       9.83509
_cell_angle_alpha    90
_cell_angle_beta     90
_cell_angle_gamma    120

_symmetry_Int_Tables_number  186
_chemical_formula_structural  CaHClO
_chemical_formula_sum  Ca2H2Cl2O2
_cell_volume  127.04349005540058
_cell_formula_units_Z  2
loop_
  _symmetry_equiv_pos_site_id
 _symmetry_equiv_pos_as_xyz
 1  'x, y, z'
loop_
 _atom_site_type_symbol
 _atom_site_label
 _atom_site_symmetry_multiplicity
 _atom_site_fract_x
 _atom_site_fract_y
 _atom_site_fract_z
 _atom_site_fract_occupancy
 Ca  Ca1  1  0.66667  0.33333  0.50080  1
 Ca  Ca2  1  0.33333  0.66667  0.00080  1
 Cl  Cl1  1  0.66667  0.33333  0.18373  1
 Cl  Cl2  1  0.33333  0.66667  0.68373  1
 H  H1  1  0.00000  0.00000  0.33199  1
 H  H2  1  0.00000  0.00000  0.83199  1
 O  O1  1  0.00000  0.00000  0.43168  1
 O  O2  1  0.00000  0.00000  0.93168  1
