CIF file written using JARVIS-Tools package.
data_SnP7Au3
_symmetry_space_group_name_H-M  'P2_1/m'
_cell_length_a       6.38832
_cell_length_b       11.1436
_cell_length_c       6.52653
_cell_angle_alpha    90
_cell_angle_beta     108.666
_cell_angle_gamma    90

_symmetry_Int_Tables_number  11
_chemical_formula_structural  SnP7Au3
_chemical_formula_sum  Sn2P4Au6
_cell_volume  440.18083015904926
_cell_formula_units_Z  2
loop_
  _symmetry_equiv_pos_site_id
 _symmetry_equiv_pos_as_xyz
 1  'x, y, z'
loop_
 _atom_site_type_symbol
 _atom_site_label
 _atom_site_symmetry_multiplicity
 _atom_site_fract_x
 _atom_site_fract_y
 _atom_site_fract_z
 _atom_site_fract_occupancy
 Au  Au1  1  0.93081  0.75000  0.68261  1
 Au  Au2  1  0.68441  0.40079  0.31379  1
 Au  Au3  1  0.68441  0.09921  0.31379  1
 Au  Au4  1  0.31559  0.59921  0.68621  1
 Au  Au5  1  0.06919  0.25000  0.31739  1
 Au  Au6  1  0.31559  0.90079  0.68621  1
 P  P1  1  0.28048  0.40747  0.19555  1
 P  P2  1  0.26349  0.25000  0.71372  1
 P  P3  1  0.73651  0.75000  0.28628  1
 P  P4  1  0.20118  0.58850  0.29033  1
 P  P5  1  0.79882  0.08850  0.70967  1
 P  P6  1  0.79882  0.41150  0.70967  1
 P  P7  1  0.83468  0.92161  0.16617  1
 P  P8  1  0.71952  0.90747  0.80445  1
 P  P9  1  0.16532  0.42161  0.83383  1
 P  P10  1  0.16532  0.07839  0.83383  1
 P  P11  1  0.83468  0.57839  0.16617  1
 P  P12  1  0.28048  0.09253  0.19555  1
 P  P13  1  0.71952  0.59253  0.80445  1
 P  P14  1  0.20118  0.91150  0.29033  1
 Sn  Sn1  1  0.31113  0.75000  0.03887  1
 Sn  Sn2  1  0.68887  0.25000  0.96113  1
