CIF file written using JARVIS-Tools package.
data_LuCuSe2
_symmetry_space_group_name_H-M  'P3m1'
_cell_length_a       4.02951
_cell_length_b       4.02951
_cell_length_c       6.39129
_cell_angle_alpha    90
_cell_angle_beta     90
_cell_angle_gamma    120

_symmetry_Int_Tables_number  156
_chemical_formula_structural  LuCuSe2
_chemical_formula_sum  LuCuSe2
_cell_volume  89.87191705178584
_cell_formula_units_Z  1
loop_
  _symmetry_equiv_pos_site_id
 _symmetry_equiv_pos_as_xyz
 1  'x, y, z'
loop_
 _atom_site_type_symbol
 _atom_site_label
 _atom_site_symmetry_multiplicity
 _atom_site_fract_x
 _atom_site_fract_y
 _atom_site_fract_z
 _atom_site_fract_occupancy
 Cu  Cu1  1  0.66667  0.33333  0.18874  1
 Lu  Lu1  1  0.00000  0.00000  0.79885  1
 Se  Se1  1  0.33333  0.66667  0.06312  1
 Se  Se2  1  0.66667  0.33333  0.56849  1
