CIF file written using JARVIS-Tools package.
data_K2SO4
_symmetry_space_group_name_H-M  'Cmcm'
_cell_length_a       5.76016
_cell_length_b       5.90141
_cell_length_c       7.86673
_cell_angle_alpha    89.9966
_cell_angle_beta     90.0017
_cell_angle_gamma    120.814

_symmetry_Int_Tables_number  63
_chemical_formula_structural  K2SO4
_chemical_formula_sum  K4S2O8
_cell_volume  229.6632169533229
_cell_formula_units_Z  2
loop_
  _symmetry_equiv_pos_site_id
 _symmetry_equiv_pos_as_xyz
 1  'x, y, z'
loop_
 _atom_site_type_symbol
 _atom_site_label
 _atom_site_symmetry_multiplicity
 _atom_site_fract_x
 _atom_site_fract_y
 _atom_site_fract_z
 _atom_site_fract_occupancy
 K  K1  1  0.38214  0.69107  0.75000  1
 K  K2  1  0.00000  0.00000  0.00000  1
 K  K3  1  -0.00000  0.00000  0.50000  1
 K  K4  1  0.61786  0.30893  0.25000  1
 O  O1  1  0.12641  0.76900  0.25000  1
 O  O2  1  0.47559  0.73779  0.40391  1
 O  O3  1  0.47559  0.73780  0.09609  1
 O  O4  1  0.12641  0.35741  0.25000  1
 O  O5  1  0.87359  0.64259  0.75000  1
 O  O6  1  0.52441  0.26221  0.59609  1
 O  O7  1  0.52441  0.26220  0.90391  1
 O  O8  1  0.87359  0.23100  0.75000  1
 S  S1  1  0.30265  0.65133  0.25000  1
 S  S2  1  0.69735  0.34867  0.75000  1
