CIF file written using JARVIS-Tools package.
data_K2CoCl4
_symmetry_space_group_name_H-M  'P2_1/c'
_cell_length_a       6.65599
_cell_length_b       9.554
_cell_length_c       12.5271
_cell_angle_alpha    90
_cell_angle_beta     106.245
_cell_angle_gamma    90

_symmetry_Int_Tables_number  14
_chemical_formula_structural  K2CoCl4
_chemical_formula_sum  K8Co4Cl6
_cell_volume  764.8109193985324
_cell_formula_units_Z  4
loop_
  _symmetry_equiv_pos_site_id
 _symmetry_equiv_pos_as_xyz
 1  'x, y, z'
loop_
 _atom_site_type_symbol
 _atom_site_label
 _atom_site_symmetry_multiplicity
 _atom_site_fract_x
 _atom_site_fract_y
 _atom_site_fract_z
 _atom_site_fract_occupancy
 Cl  Cl1  1  0.22253  0.40197  0.16586  1
 Cl  Cl2  1  0.79572  0.03924  0.06708  1
 Cl  Cl3  1  0.77747  0.59803  0.83414  1
 Cl  Cl4  1  0.22253  0.09803  0.66586  1
 Cl  Cl5  1  0.77422  0.30919  0.27767  1
 Cl  Cl6  1  0.77422  0.19081  0.77767  1
 Cl  Cl7  1  0.70013  0.84006  0.60067  1
 Cl  Cl8  1  0.20428  0.96076  0.93292  1
 Cl  Cl9  1  0.22578  0.80919  0.22233  1
 Cl  Cl10  1  0.77747  0.90197  0.33414  1
 Cl  Cl11  1  0.29987  0.15994  0.39933  1
 Cl  Cl12  1  0.70013  0.65994  0.10067  1
 Cl  Cl13  1  0.22578  0.69081  0.72233  1
 Cl  Cl14  1  0.79572  0.46076  0.56708  1
 Cl  Cl15  1  0.20428  0.53924  0.43292  1
 Cl  Cl16  1  0.29987  0.34006  0.89933  1
 Co  Co1  1  0.12007  0.14735  0.81987  1
 Co  Co2  1  0.87993  0.85265  0.18013  1
 Co  Co3  1  0.12007  0.35265  0.31987  1
 Co  Co4  1  0.87993  0.64735  0.68013  1
 K  K1  1  0.78042  0.14635  0.50865  1
 K  K2  1  0.59812  0.59495  0.33403  1
 K  K3  1  0.40188  0.09495  0.16597  1
 K  K4  1  0.21958  0.85365  0.49135  1
 K  K5  1  0.59812  0.90505  0.83403  1
 K  K6  1  0.40188  0.40505  0.66597  1
 K  K7  1  0.21958  0.64635  0.99135  1
 K  K8  1  0.78042  0.35365  0.00865  1
