CIF file written using JARVIS-Tools package.
data_KSb
_symmetry_space_group_name_H-M  'P2_1/c'
_cell_length_a       7.17203
_cell_length_b       6.98521
_cell_length_c       13.3892
_cell_angle_alpha    90
_cell_angle_beta     115.029
_cell_angle_gamma    90

_symmetry_Int_Tables_number  14
_chemical_formula_structural  KSb
_chemical_formula_sum  K8Sb8
_cell_volume  607.7874547766532
_cell_formula_units_Z  8
loop_
  _symmetry_equiv_pos_site_id
 _symmetry_equiv_pos_as_xyz
 1  'x, y, z'
loop_
 _atom_site_type_symbol
 _atom_site_label
 _atom_site_symmetry_multiplicity
 _atom_site_fract_x
 _atom_site_fract_y
 _atom_site_fract_z
 _atom_site_fract_occupancy
 K  K1  1  0.22221  0.59894  0.33083  1
 K  K2  1  0.77779  0.09894  0.16917  1
 K  K3  1  0.77779  0.40106  0.66917  1
 K  K4  1  0.22221  0.90106  0.83083  1
 K  K5  1  0.23986  0.33243  0.03397  1
 K  K6  1  0.76014  0.83243  0.46603  1
 K  K7  1  0.76014  0.66757  0.96603  1
 K  K8  1  0.23986  0.16757  0.53397  1
 Sb  Sb1  1  0.31823  0.09916  0.28803  1
 Sb  Sb2  1  0.68177  0.59916  0.21197  1
 Sb  Sb3  1  0.68177  0.90084  0.71197  1
 Sb  Sb4  1  0.31823  0.40084  0.78803  1
 Sb  Sb5  1  0.31431  0.83200  0.11953  1
 Sb  Sb6  1  0.68569  0.33200  0.38047  1
 Sb  Sb7  1  0.68569  0.16800  0.88047  1
 Sb  Sb8  1  0.31431  0.66800  0.61953  1
