CIF file written using JARVIS-Tools package.
data_Ba2In2O5
_symmetry_space_group_name_H-M  'Ima2'
_cell_length_a       6.01651
_cell_length_b       6.18177
_cell_length_c       9.49668
_cell_angle_alpha    108.994
_cell_angle_beta     108.468
_cell_angle_gamma    90

_symmetry_Int_Tables_number  46
_chemical_formula_structural  Ba2In2O5
_chemical_formula_sum  Ba4In4O0
_cell_volume  314.67641632418054
_cell_formula_units_Z  2
loop_
  _symmetry_equiv_pos_site_id
 _symmetry_equiv_pos_as_xyz
 1  'x, y, z'
loop_
 _atom_site_type_symbol
 _atom_site_label
 _atom_site_symmetry_multiplicity
 _atom_site_fract_x
 _atom_site_fract_y
 _atom_site_fract_z
 _atom_site_fract_occupancy
 Ba  Ba1  1  0.58929  0.12395  0.21849  1
 Ba  Ba2  1  0.08929  0.59454  0.21849  1
 Ba  Ba3  1  0.87080  0.40546  0.78151  1
 Ba  Ba4  1  0.37080  0.87605  0.78151  1
 In  In1  1  0.97530  -0.00000  0.00000  1
 In  In2  1  0.47530  0.50000  0.00000  1
 In  In3  1  0.25521  0.18775  0.50000  1
 In  In4  1  0.75521  0.81225  0.50000  1
 O  O1  1  0.60022  0.11907  0.50000  1
 O  O2  1  0.31471  0.41681  0.72539  1
 O  O3  1  0.58932  0.58319  0.27461  1
 O  O4  1  0.81471  0.80858  0.72539  1
 O  O5  1  0.73744  0.75383  0.01643  1
 O  O6  1  0.23744  0.76260  0.01643  1
 O  O7  1  0.10022  0.88093  0.50000  1
 O  O8  1  0.22100  0.23740  0.98357  1
 O  O9  1  0.08932  0.19142  0.27461  1
 O  O10  1  0.72100  0.24617  0.98357  1
