CIF file written using JARVIS-Tools package.
data_VOF3
_symmetry_space_group_name_H-M  'C2'
_cell_length_a       4.59472
_cell_length_b       6.91803
_cell_length_c       4.53781
_cell_angle_alpha    70.2988
_cell_angle_beta     90.0027
_cell_angle_gamma    70.5488

_symmetry_Int_Tables_number  5
_chemical_formula_structural  VOF3
_chemical_formula_sum  V2O2F6
_cell_volume  127.01807955563118
_cell_formula_units_Z  2
loop_
  _symmetry_equiv_pos_site_id
 _symmetry_equiv_pos_as_xyz
 1  'x, y, z'
loop_
 _atom_site_type_symbol
 _atom_site_label
 _atom_site_symmetry_multiplicity
 _atom_site_fract_x
 _atom_site_fract_y
 _atom_site_fract_z
 _atom_site_fract_occupancy
 F  F1  1  0.36739  0.18016  0.97170  1
 F  F2  1  0.36328  0.40890  0.32641  1
 F  F3  1  0.14348  0.83592  0.11210  1
 F  F4  1  0.54772  0.81806  0.52707  1
 F  F5  1  0.77269  0.58959  0.17201  1
 F  F6  1  0.98087  0.16268  0.38649  1
 O  O1  1  0.16025  0.60478  0.72220  1
 O  O2  1  0.76613  0.39356  0.77631  1
 V  V1  1  0.03144  0.35911  0.05083  1
 V  V2  1  0.39098  0.63930  0.44769  1
