CIF file written using JARVIS-Tools package.
data_Rb2SeO4
_symmetry_space_group_name_H-M  'Ama2'
_cell_length_a       6.20224
_cell_length_b       6.36414
_cell_length_c       8.42153
_cell_angle_alpha    89.9986
_cell_angle_beta     90.0007
_cell_angle_gamma    120.867

_symmetry_Int_Tables_number  40
_chemical_formula_structural  Rb2SeO4
_chemical_formula_sum  Rb4Se2O8
_cell_volume  285.33029730329207
_cell_formula_units_Z  2
loop_
  _symmetry_equiv_pos_site_id
 _symmetry_equiv_pos_as_xyz
 1  'x, y, z'
loop_
 _atom_site_type_symbol
 _atom_site_label
 _atom_site_symmetry_multiplicity
 _atom_site_fract_x
 _atom_site_fract_y
 _atom_site_fract_z
 _atom_site_fract_occupancy
 O  O1  1  0.13287  0.78773  0.25538  1
 O  O2  1  0.10126  0.34415  0.25534  1
 O  O3  1  0.48258  0.72699  0.09390  1
 O  O4  1  0.48260  0.72694  0.41680  1
 O  O5  1  0.51740  0.24434  0.91680  1
 O  O6  1  0.51742  0.24441  0.59390  1
 O  O7  1  0.86713  0.65486  0.75538  1
 O  O8  1  0.89874  0.24289  0.75534  1
 Rb  Rb1  1  0.00001  0.00474  0.50535  1
 Rb  Rb2  1  -0.00001  0.00473  0.00535  1
 Rb  Rb3  1  0.38303  0.70269  0.75535  1
 Rb  Rb4  1  0.61697  0.31966  0.25535  1
 Se  Se1  1  0.30123  0.64854  0.25535  1
 Se  Se2  1  0.69877  0.34731  0.75535  1
