CIF file written using JARVIS-Tools package.
data_Y3U2O10
_symmetry_space_group_name_H-M  'C2/m'
_cell_length_a       5.34393
_cell_length_b       6.46674
_cell_length_c       6.61503
_cell_angle_alpha    79.3277
_cell_angle_beta     66.1893
_cell_angle_gamma    65.6107

_symmetry_Int_Tables_number  12
_chemical_formula_structural  Y3U2O10
_chemical_formula_sum  Y3U2O0
_cell_volume  190.4325413520918
_cell_formula_units_Z  1
loop_
  _symmetry_equiv_pos_site_id
 _symmetry_equiv_pos_as_xyz
 1  'x, y, z'
loop_
 _atom_site_type_symbol
 _atom_site_label
 _atom_site_symmetry_multiplicity
 _atom_site_fract_x
 _atom_site_fract_y
 _atom_site_fract_z
 _atom_site_fract_occupancy
 O  O1  1  0.45363  0.91444  0.69125  1
 O  O2  1  0.86087  0.68355  0.10757  1
 O  O3  1  0.93873  0.91440  0.69120  1
 O  O4  1  0.25571  0.48352  0.50333  1
 O  O5  1  0.34599  0.68356  0.10743  1
 O  O6  1  0.63432  0.29893  0.89940  1
 O  O7  1  0.75494  0.48348  0.50345  1
 O  O8  1  0.04459  0.11449  0.29531  1
 O  O9  1  0.16525  0.29904  0.89933  1
 O  O10  1  0.54385  0.11447  0.29537  1
 U  U1  1  0.20100  0.40061  0.19537  1
 U  U2  1  0.59860  0.19736  0.60336  1
 Y  Y1  1  0.00227  0.99749  0.99590  1
 Y  Y2  1  0.39978  0.79899  0.39936  1
 Y  Y3  1  0.79731  0.60048  0.80283  1
