CIF file written using JARVIS-Tools package.
data_Er2CdS4
_symmetry_space_group_name_H-M  'Fd-3m'
_cell_length_a       7.89982
_cell_length_b       7.89982
_cell_length_c       7.89983
_cell_angle_alpha    60
_cell_angle_beta     60
_cell_angle_gamma    60

_symmetry_Int_Tables_number  227
_chemical_formula_structural  Er2CdS4
_chemical_formula_sum  Er4Cd2S8
_cell_volume  348.60865582191565
_cell_formula_units_Z  2
loop_
  _symmetry_equiv_pos_site_id
 _symmetry_equiv_pos_as_xyz
 1  'x, y, z'
loop_
 _atom_site_type_symbol
 _atom_site_label
 _atom_site_symmetry_multiplicity
 _atom_site_fract_x
 _atom_site_fract_y
 _atom_site_fract_z
 _atom_site_fract_occupancy
 Cd  Cd1  1  0.12500  0.12500  0.12500  1
 Cd  Cd2  1  0.87500  0.87500  0.87500  1
 Er  Er1  1  0.50000  0.50000  0.00000  1
 Er  Er2  1  0.50000  0.50000  0.50000  1
 Er  Er3  1  -0.00000  0.50000  0.50000  1
 Er  Er4  1  0.50000  0.00000  0.50000  1
 S  S1  1  0.74224  0.74224  0.74224  1
 S  S2  1  0.25776  0.25776  0.72671  1
 S  S3  1  0.25776  0.72671  0.25776  1
 S  S4  1  0.72671  0.25776  0.25776  1
 S  S5  1  0.74224  0.27329  0.74224  1
 S  S6  1  0.27329  0.74224  0.74224  1
 S  S7  1  0.25776  0.25776  0.25776  1
 S  S8  1  0.74224  0.74224  0.27329  1
