CIF file written using JARVIS-Tools package.
data_LiGa2Au
_symmetry_space_group_name_H-M  'Cm'
_cell_length_a       13.0869
_cell_length_b       6.97108
_cell_length_c       6.96061
_cell_angle_alpha    28.0238
_cell_angle_beta     20.0401
_cell_angle_gamma    20.0097

_symmetry_Int_Tables_number  8
_chemical_formula_structural  LiGa2Au
_chemical_formula_sum  LiGa2Au
_cell_volume  74.46008627085457
_cell_formula_units_Z  1
loop_
  _symmetry_equiv_pos_site_id
 _symmetry_equiv_pos_as_xyz
 1  'x, y, z'
loop_
 _atom_site_type_symbol
 _atom_site_label
 _atom_site_symmetry_multiplicity
 _atom_site_fract_x
 _atom_site_fract_y
 _atom_site_fract_z
 _atom_site_fract_occupancy
 Au  Au1  1  0.47791  0.00150  -0.00113  1
 Ga  Ga1  1  0.67972  -0.00029  0.00022  1
 Ga  Ga2  1  0.28671  -0.00213  0.00160  1
 Li  Li1  1  0.05565  0.00092  -0.00068  1
