CIF file written using JARVIS-Tools package.
data_Mn3TeO6
_symmetry_space_group_name_H-M  'R-3'
_cell_length_a       6.27054
_cell_length_b       6.27054
_cell_length_c       6.27053
_cell_angle_alpha    90.4346
_cell_angle_beta     90.4346
_cell_angle_gamma    90.4345

_symmetry_Int_Tables_number  148
_chemical_formula_structural  Mn3TeO6
_chemical_formula_sum  Mn6Te2O2
_cell_volume  246.53408693939687
_cell_formula_units_Z  2
loop_
  _symmetry_equiv_pos_site_id
 _symmetry_equiv_pos_as_xyz
 1  'x, y, z'
loop_
 _atom_site_type_symbol
 _atom_site_label
 _atom_site_symmetry_multiplicity
 _atom_site_fract_x
 _atom_site_fract_y
 _atom_site_fract_z
 _atom_site_fract_occupancy
 Mn  Mn1  1  0.44045  0.95204  0.25215  1
 Mn  Mn2  1  0.74785  0.55955  0.04796  1
 Mn  Mn3  1  0.04796  0.74785  0.55955  1
 Mn  Mn4  1  0.55955  0.04796  0.74785  1
 Mn  Mn5  1  0.95204  0.25215  0.44045  1
 Mn  Mn6  1  0.25215  0.44045  0.95204  1
 O  O1  1  0.04508  0.70052  0.91140  1
 O  O2  1  0.70052  0.91140  0.04508  1
 O  O3  1  0.08860  0.95492  0.29948  1
 O  O4  1  0.95492  0.29948  0.08860  1
 O  O5  1  0.29948  0.08860  0.95492  1
 O  O6  1  0.42910  0.79908  0.56532  1
 O  O7  1  0.57090  0.20092  0.43468  1
 O  O8  1  0.91140  0.04508  0.70052  1
 O  O9  1  0.43468  0.57090  0.20092  1
 O  O10  1  0.56532  0.42910  0.79908  1
 O  O11  1  0.79908  0.56532  0.42910  1
 O  O12  1  0.20092  0.43468  0.57090  1
 Te  Te1  1  0.50000  0.50000  0.50000  1
 Te  Te2  1  0.00000  0.00000  0.00000  1
