CIF file written using JARVIS-Tools package.
data_Ba2SrTeO6
_symmetry_space_group_name_H-M  'R-3'
_cell_length_a       6.09183
_cell_length_b       6.09183
_cell_length_c       6.09184
_cell_angle_alpha    60.7514
_cell_angle_beta     60.7513
_cell_angle_gamma    60.7514

_symmetry_Int_Tables_number  148
_chemical_formula_structural  Ba2SrTeO6
_chemical_formula_sum  Ba2SrTeO6
_cell_volume  162.5660504578533
_cell_formula_units_Z  1
loop_
  _symmetry_equiv_pos_site_id
 _symmetry_equiv_pos_as_xyz
 1  'x, y, z'
loop_
 _atom_site_type_symbol
 _atom_site_label
 _atom_site_symmetry_multiplicity
 _atom_site_fract_x
 _atom_site_fract_y
 _atom_site_fract_z
 _atom_site_fract_occupancy
 Ba  Ba1  1  0.74854  0.74854  0.74854  1
 Ba  Ba2  1  0.25146  0.25146  0.25146  1
 O  O1  1  0.67518  0.28108  0.77180  1
 O  O2  1  0.28108  0.77180  0.67518  1
 O  O3  1  0.77180  0.67518  0.28108  1
 O  O4  1  0.32482  0.71892  0.22820  1
 O  O5  1  0.22820  0.32482  0.71892  1
 O  O6  1  0.71892  0.22820  0.32482  1
 Sr  Sr1  1  0.00000  0.00000  0.00000  1
 Te  Te1  1  0.50000  0.50000  0.50000  1
