CIF file written using JARVIS-Tools package.
data_GaPO4
_symmetry_space_group_name_H-M  'I-4'
_cell_length_a       5.08796
_cell_length_b       5.08797
_cell_length_c       4.86888
_cell_angle_alpha    61.4145
_cell_angle_beta     61.4144
_cell_angle_gamma    57.171

_symmetry_Int_Tables_number  82
_chemical_formula_structural  GaPO4
_chemical_formula_sum  GaPO4
_cell_volume  88.80855135564713
_cell_formula_units_Z  1
loop_
  _symmetry_equiv_pos_site_id
 _symmetry_equiv_pos_as_xyz
 1  'x, y, z'
loop_
 _atom_site_type_symbol
 _atom_site_label
 _atom_site_symmetry_multiplicity
 _atom_site_fract_x
 _atom_site_fract_y
 _atom_site_fract_z
 _atom_site_fract_occupancy
 Ga  Ga1  1  0.00000  0.00000  0.00000  1
 O  O1  1  0.28134  -0.01108  0.14554  1
 O  O2  1  -0.01108  0.28134  0.58419  1
 O  O3  1  0.14554  0.58419  -0.01108  1
 O  O4  1  0.58419  0.14554  0.28134  1
 P  P1  1  0.25000  0.25000  0.25000  1
