CIF file written using JARVIS-Tools package.
data_V3Se4
_symmetry_space_group_name_H-M  'C2/m'
_cell_length_a       3.41436
_cell_length_b       6.17863
_cell_length_c       6.89061
_cell_angle_alpha    114.932
_cell_angle_beta     104.345
_cell_angle_gamma    90.0001

_symmetry_Int_Tables_number  12
_chemical_formula_structural  V3Se4
_chemical_formula_sum  V3Se4
_cell_volume  126.80284689670573
_cell_formula_units_Z  1
loop_
  _symmetry_equiv_pos_site_id
 _symmetry_equiv_pos_as_xyz
 1  'x, y, z'
loop_
 _atom_site_type_symbol
 _atom_site_label
 _atom_site_symmetry_multiplicity
 _atom_site_fract_x
 _atom_site_fract_y
 _atom_site_fract_z
 _atom_site_fract_occupancy
 Se  Se1  1  0.64069  0.97953  0.28138  1
 Se  Se2  1  0.35931  0.02047  0.71862  1
 Se  Se3  1  0.10716  0.45243  0.21431  1
 Se  Se4  1  0.89284  0.54757  0.78569  1
 V  V1  1  0.25545  0.32231  0.51089  1
 V  V2  1  0.74455  0.67769  0.48911  1
 V  V3  1  0.00000  0.00000  0.00000  1
