CIF file written using JARVIS-Tools package.
data_LiCoC4O4
_symmetry_space_group_name_H-M  'P-43m'
_cell_length_a       5.58035
_cell_length_b       5.5803
_cell_length_c       5.58035
_cell_angle_alpha    89.9982
_cell_angle_beta     90.0078
_cell_angle_gamma    89.9949

_symmetry_Int_Tables_number  215
_chemical_formula_structural  LiCoC4O4
_chemical_formula_sum  LiCoC4O4
_cell_volume  173.77251395034085
_cell_formula_units_Z  1
loop_
  _symmetry_equiv_pos_site_id
 _symmetry_equiv_pos_as_xyz
 1  'x, y, z'
loop_
 _atom_site_type_symbol
 _atom_site_label
 _atom_site_symmetry_multiplicity
 _atom_site_fract_x
 _atom_site_fract_y
 _atom_site_fract_z
 _atom_site_fract_occupancy
 C  C1  1  0.31872  0.68130  0.68126  1
 C  C2  1  0.68127  0.68129  0.31871  1
 C  C3  1  0.31871  0.31874  0.31871  1
 C  C4  1  0.68128  0.31873  0.68128  1
 Co  Co1  1  0.50000  0.50002  0.49998  1
 Li  Li1  1  0.00001  0.99996  0.00002  1
 O  O1  1  0.19723  0.80277  0.80279  1
 O  O2  1  0.19722  0.19721  0.19723  1
 O  O3  1  0.80278  0.80277  0.19723  1
 O  O4  1  0.80277  0.19721  0.80279  1
