CIF file written using JARVIS-Tools package.
data_SrN6
_symmetry_space_group_name_H-M  'Fddd'
_cell_length_a       6.16536
_cell_length_b       6.57167
_cell_length_c       6.59969
_cell_angle_alpha    77.3434
_cell_angle_beta     62.1541
_cell_angle_gamma    62.025

_symmetry_Int_Tables_number  70
_chemical_formula_structural  SrN6
_chemical_formula_sum  Sr2N2
_cell_volume  208.80817217299668
_cell_formula_units_Z  2
loop_
  _symmetry_equiv_pos_site_id
 _symmetry_equiv_pos_as_xyz
 1  'x, y, z'
loop_
 _atom_site_type_symbol
 _atom_site_label
 _atom_site_symmetry_multiplicity
 _atom_site_fract_x
 _atom_site_fract_y
 _atom_site_fract_z
 _atom_site_fract_occupancy
 N  N1  1  0.83085  0.38208  0.49798  1
 N  N2  1  0.21091  0.11792  0.00202  1
 N  N3  1  0.00049  0.25000  0.99902  1
 N  N4  1  0.74951  0.25000  0.50098  1
 N  N5  1  0.99951  0.75000  0.00098  1
 N  N6  1  0.25049  0.75000  0.49902  1
 N  N7  1  0.32883  0.88208  0.50202  1
 N  N8  1  0.21293  0.61792  -0.00202  1
 N  N9  1  0.78909  0.88208  -0.00202  1
 N  N10  1  0.16915  0.61792  0.50202  1
 N  N11  1  0.67117  0.11792  0.49798  1
 N  N12  1  0.78707  0.38208  0.00202  1
 Sr  Sr1  1  0.62500  0.75000  0.75000  1
 Sr  Sr2  1  0.37500  0.25000  0.25000  1
