CIF file written using JARVIS-Tools package.
data_Sr2CdAg
_symmetry_space_group_name_H-M  'Immm'
_cell_length_a       13.565
_cell_length_b       7.56779
_cell_length_c       7.56778
_cell_angle_alpha    43.4297
_cell_angle_beta     26.3327
_cell_angle_gamma    26.3327

_symmetry_Int_Tables_number  71
_chemical_formula_structural  Sr2CdAg
_chemical_formula_sum  Sr2CdAg
_cell_volume  140.66794880584177
_cell_formula_units_Z  1
loop_
  _symmetry_equiv_pos_site_id
 _symmetry_equiv_pos_as_xyz
 1  'x, y, z'
loop_
 _atom_site_type_symbol
 _atom_site_label
 _atom_site_symmetry_multiplicity
 _atom_site_fract_x
 _atom_site_fract_y
 _atom_site_fract_z
 _atom_site_fract_occupancy
 Ag  Ag1  1  -0.00000  0.00000  0.00000  1
 Cd  Cd1  1  0.50000  0.00000  0.00000  1
 Sr  Sr1  1  0.77502  -0.00000  0.00000  1
 Sr  Sr2  1  0.22498  0.00000  -0.00000  1
