CIF file written using JARVIS-Tools package.
data_Na5ReO6
_symmetry_space_group_name_H-M  'C2/m'
_cell_length_a       5.63828
_cell_length_b       5.63828
_cell_length_c       5.60329
_cell_angle_alpha    100.173
_cell_angle_beta     100.173
_cell_angle_gamma    119.522

_symmetry_Int_Tables_number  12
_chemical_formula_structural  Na5ReO6
_chemical_formula_sum  Na5ReO6
_cell_volume  145.1576404340532
_cell_formula_units_Z  1
loop_
  _symmetry_equiv_pos_site_id
 _symmetry_equiv_pos_as_xyz
 1  'x, y, z'
loop_
 _atom_site_type_symbol
 _atom_site_label
 _atom_site_symmetry_multiplicity
 _atom_site_fract_x
 _atom_site_fract_y
 _atom_site_fract_z
 _atom_site_fract_occupancy
 Na  Na1  1  0.82587  0.17413  0.50000  1
 Na  Na2  1  0.33382  0.66618  -0.00000  1
 Na  Na3  1  0.66618  0.33382  0.00000  1
 Na  Na4  1  0.50000  0.50000  0.50000  1
 Na  Na5  1  0.17413  0.82587  0.50000  1
 O  O1  1  0.79513  0.79513  0.20671  1
 O  O2  1  0.35022  0.07066  0.21501  1
 O  O3  1  0.92934  0.64978  0.78499  1
 O  O4  1  0.64978  0.92934  0.78499  1
 O  O5  1  0.07066  0.35022  0.21501  1
 O  O6  1  0.20487  0.20487  0.79329  1
 Re  Re1  1  0.00000  0.00000  0.00000  1
