CIF file written using JARVIS-Tools package.
data_CeH3C3O6
_symmetry_space_group_name_H-M  'R3m'
_cell_length_a       6.33154
_cell_length_b       6.33154
_cell_length_c       6.33154
_cell_angle_alpha    115.501
_cell_angle_beta     115.501
_cell_angle_gamma    115.501

_symmetry_Int_Tables_number  160
_chemical_formula_structural  CeH3C3O6
_chemical_formula_sum  CeH3C3O6
_cell_volume  135.34775482324352
_cell_formula_units_Z  1
loop_
  _symmetry_equiv_pos_site_id
 _symmetry_equiv_pos_as_xyz
 1  'x, y, z'
loop_
 _atom_site_type_symbol
 _atom_site_label
 _atom_site_symmetry_multiplicity
 _atom_site_fract_x
 _atom_site_fract_y
 _atom_site_fract_z
 _atom_site_fract_occupancy
 C  C1  1  0.14979  0.60970  0.60970  1
 C  C2  1  0.60970  0.60970  0.14979  1
 C  C3  1  0.60970  0.14979  0.60970  1
 Ce  Ce1  1  0.00113  0.00113  0.00113  1
 H  H1  1  0.85550  0.37042  0.37042  1
 H  H2  1  0.37042  0.37042  0.85550  1
 H  H3  1  0.37042  0.85550  0.37042  1
 O  O1  1  0.28260  0.88188  0.88188  1
 O  O2  1  0.88188  0.88188  0.28260  1
 O  O3  1  0.88188  0.28260  0.88188  1
 O  O4  1  0.33489  0.59054  0.59054  1
 O  O5  1  0.59054  0.59054  0.33489  1
 O  O6  1  0.59054  0.33489  0.59054  1
