CIF file written using JARVIS-Tools package.
data_Li2FeNi3O8
_symmetry_space_group_name_H-M  'P6_3mc'
_cell_length_a       5.65046
_cell_length_b       5.65049
_cell_length_c       9.07065
_cell_angle_alpha    89.9987
_cell_angle_beta     90.0007
_cell_angle_gamma    120

_symmetry_Int_Tables_number  186
_chemical_formula_structural  Li2FeNi3O8
_chemical_formula_sum  Li4Fe2Ni6O6
_cell_volume  250.80608197484653
_cell_formula_units_Z  2
loop_
  _symmetry_equiv_pos_site_id
 _symmetry_equiv_pos_as_xyz
 1  'x, y, z'
loop_
 _atom_site_type_symbol
 _atom_site_label
 _atom_site_symmetry_multiplicity
 _atom_site_fract_x
 _atom_site_fract_y
 _atom_site_fract_z
 _atom_site_fract_occupancy
 Fe  Fe1  1  0.33337  0.66669  0.49326  1
 Fe  Fe2  1  0.66663  0.33332  0.99326  1
 Li  Li1  1  0.33333  0.66667  0.89851  1
 Li  Li2  1  0.99989  0.99996  0.99527  1
 Li  Li3  1  0.00011  0.00006  0.49527  1
 Li  Li4  1  0.66667  0.33334  0.39851  1
 Ni  Ni1  1  0.66062  0.83032  0.21370  1
 Ni  Ni2  1  0.16963  0.83033  0.21370  1
 Ni  Ni3  1  0.16963  0.33933  0.21370  1
 Ni  Ni4  1  0.83037  0.66070  0.71370  1
 Ni  Ni5  1  0.83037  0.16970  0.71370  1
 Ni  Ni6  1  0.33938  0.16970  0.71370  1
 O  O1  1  0.16609  0.33213  0.59148  1
 O  O2  1  0.16610  0.83399  0.59148  1
 O  O3  1  0.96034  0.48018  0.84483  1
 O  O4  1  0.33329  0.66666  0.11158  1
 O  O5  1  -0.00004  -0.00001  0.30534  1
 O  O6  1  0.00004  0.00003  0.80534  1
 O  O7  1  0.03966  0.51984  0.34483  1
 O  O8  1  0.83389  0.66788  0.09148  1
 O  O9  1  0.66797  0.83400  0.59145  1
 O  O10  1  0.51985  0.48020  0.84481  1
 O  O11  1  0.51986  0.03967  0.84481  1
 O  O12  1  0.66671  0.33337  0.61158  1
 O  O13  1  0.48015  0.96035  0.34481  1
 O  O14  1  0.33203  0.16603  0.09145  1
 O  O15  1  0.48014  0.51982  0.34481  1
 O  O16  1  0.83391  0.16604  0.09148  1
