CIF file written using JARVIS-Tools package.
data_Mn2NiO6
_symmetry_space_group_name_H-M  'Cmce'
_cell_length_a       4.95896
_cell_length_b       4.95897
_cell_length_c       9.00008
_cell_angle_alpha    90
_cell_angle_beta     90
_cell_angle_gamma    120.184

_symmetry_Int_Tables_number  64
_chemical_formula_structural  Mn2NiO6
_chemical_formula_sum  Mn4Ni2O2
_cell_volume  191.31634628161143
_cell_formula_units_Z  2
loop_
  _symmetry_equiv_pos_site_id
 _symmetry_equiv_pos_as_xyz
 1  'x, y, z'
loop_
 _atom_site_type_symbol
 _atom_site_label
 _atom_site_symmetry_multiplicity
 _atom_site_fract_x
 _atom_site_fract_y
 _atom_site_fract_z
 _atom_site_fract_occupancy
 Mn  Mn1  1  0.66653  0.33347  0.00000  1
 Mn  Mn2  1  0.83347  0.16653  0.50000  1
 Mn  Mn3  1  0.33347  0.66653  0.00000  1
 Mn  Mn4  1  0.16653  0.83347  0.50000  1
 Ni  Ni1  1  0.00000  0.00000  0.00000  1
 Ni  Ni2  1  0.50000  0.50000  0.50000  1
 O  O1  1  0.33031  -0.00049  0.89417  1
 O  O2  1  0.83031  0.49951  0.60583  1
 O  O3  1  0.50049  0.16969  0.39417  1
 O  O4  1  0.83072  0.83072  0.39440  1
 O  O5  1  0.66928  0.66928  0.89440  1
 O  O6  1  0.16928  0.16928  0.60560  1
 O  O7  1  0.66969  0.00049  0.10583  1
 O  O8  1  -0.00049  0.33031  0.89417  1
 O  O9  1  0.33072  0.33072  0.10560  1
 O  O10  1  0.16969  0.50049  0.39417  1
 O  O11  1  0.00049  0.66969  0.10583  1
 O  O12  1  0.49951  0.83031  0.60583  1
