CIF file written using JARVIS-Tools package.
data_LiVCrO4
_symmetry_space_group_name_H-M  'Imma'
_cell_length_a       5.77321
_cell_length_b       5.83982
_cell_length_c       5.83982
_cell_angle_alpha    60.7663
_cell_angle_beta     60.3765
_cell_angle_gamma    60.3766

_symmetry_Int_Tables_number  74
_chemical_formula_structural  LiVCrO4
_chemical_formula_sum  Li2V2Cr2O8
_cell_volume  140.80931074935808
_cell_formula_units_Z  2
loop_
  _symmetry_equiv_pos_site_id
 _symmetry_equiv_pos_as_xyz
 1  'x, y, z'
loop_
 _atom_site_type_symbol
 _atom_site_label
 _atom_site_symmetry_multiplicity
 _atom_site_fract_x
 _atom_site_fract_y
 _atom_site_fract_z
 _atom_site_fract_occupancy
 Cr  Cr1  1  0.50000  0.00000  0.50000  1
 Cr  Cr2  1  0.50000  0.50000  -0.00000  1
 Li  Li1  1  0.12510  0.12490  0.12490  1
 Li  Li2  1  0.87490  0.87510  0.87510  1
 O  O1  1  0.25732  0.26453  0.26453  1
 O  O2  1  0.25930  0.26429  0.71710  1
 O  O3  1  0.25930  0.71710  0.26429  1
 O  O4  1  0.71361  0.26453  0.26453  1
 O  O5  1  0.28639  0.73547  0.73547  1
 O  O6  1  0.74070  0.73571  0.28290  1
 O  O7  1  0.74070  0.28290  0.73571  1
 O  O8  1  0.74268  0.73547  0.73547  1
 V  V1  1  -0.00000  0.50000  0.50000  1
 V  V2  1  0.50000  0.50000  0.50000  1
