CIF file written using JARVIS-Tools package.
data_AgPb2Br5
_symmetry_space_group_name_H-M  'C2/c'
_cell_length_a       7.11599
_cell_length_b       8.03425
_cell_length_c       9.05337
_cell_angle_alpha    95.3687
_cell_angle_beta     113.141
_cell_angle_gamma    90

_symmetry_Int_Tables_number  15
_chemical_formula_structural  AgPb2Br5
_chemical_formula_sum  Ag2Pb4Br0
_cell_volume  473.4791213789602
_cell_formula_units_Z  2
loop_
  _symmetry_equiv_pos_site_id
 _symmetry_equiv_pos_as_xyz
 1  'x, y, z'
loop_
 _atom_site_type_symbol
 _atom_site_label
 _atom_site_symmetry_multiplicity
 _atom_site_fract_x
 _atom_site_fract_y
 _atom_site_fract_z
 _atom_site_fract_occupancy
 Ag  Ag1  1  0.50000  -0.00000  0.50000  1
 Ag  Ag2  1  0.00000  0.50000  0.50000  1
 Br  Br1  1  0.13581  0.81916  0.44314  1
 Br  Br2  1  0.92560  0.75000  -0.00000  1
 Br  Br3  1  0.86419  0.18084  0.55686  1
 Br  Br4  1  0.29349  0.57699  0.82598  1
 Br  Br5  1  0.53249  0.07699  0.82598  1
 Br  Br6  1  0.70651  0.42301  0.17402  1
 Br  Br7  1  0.46751  0.92301  0.17402  1
 Br  Br8  1  0.69267  0.68084  0.55686  1
 Br  Br9  1  0.30733  0.31916  0.44314  1
 Br  Br10  1  0.07440  0.25000  0.00000  1
 Pb  Pb1  1  0.87087  0.06427  0.20718  1
 Pb  Pb2  1  0.12913  0.93573  0.79282  1
 Pb  Pb3  1  0.33631  0.56427  0.20718  1
 Pb  Pb4  1  0.66369  0.43573  0.79282  1
