CIF file written using JARVIS-Tools package.
data_InBO3
_symmetry_space_group_name_H-M  'R-3c'
_cell_length_a       5.89962
_cell_length_b       5.89962
_cell_length_c       5.89962
_cell_angle_alpha    48.9811
_cell_angle_beta     48.9811
_cell_angle_gamma    48.9811

_symmetry_Int_Tables_number  167
_chemical_formula_structural  InBO3
_chemical_formula_sum  In2B2O6
_cell_volume  107.32365775465284
_cell_formula_units_Z  2
loop_
  _symmetry_equiv_pos_site_id
 _symmetry_equiv_pos_as_xyz
 1  'x, y, z'
loop_
 _atom_site_type_symbol
 _atom_site_label
 _atom_site_symmetry_multiplicity
 _atom_site_fract_x
 _atom_site_fract_y
 _atom_site_fract_z
 _atom_site_fract_occupancy
 B  B1  1  0.75000  0.75000  0.75000  1
 B  B2  1  0.25000  0.25000  0.25000  1
 In  In1  1  0.50000  0.50000  0.50000  1
 In  In2  1  0.00000  0.00000  0.00000  1
 O  O1  1  0.96702  0.53298  0.25000  1
 O  O2  1  0.25000  0.96702  0.53298  1
 O  O3  1  0.53298  0.25000  0.96702  1
 O  O4  1  0.03298  0.46702  0.75000  1
 O  O5  1  0.75000  0.03298  0.46702  1
 O  O6  1  0.46702  0.75000  0.03298  1
