CIF file written using JARVIS-Tools package.
data_NaBC4N4
_symmetry_space_group_name_H-M  'Fd-3m'
_cell_length_a       8.3294
_cell_length_b       8.32939
_cell_length_c       8.3294
_cell_angle_alpha    60
_cell_angle_beta     60
_cell_angle_gamma    60

_symmetry_Int_Tables_number  227
_chemical_formula_structural  NaBC4N4
_chemical_formula_sum  Na2B2C8N8
_cell_volume  408.62581336653597
_cell_formula_units_Z  2
loop_
  _symmetry_equiv_pos_site_id
 _symmetry_equiv_pos_as_xyz
 1  'x, y, z'
loop_
 _atom_site_type_symbol
 _atom_site_label
 _atom_site_symmetry_multiplicity
 _atom_site_fract_x
 _atom_site_fract_y
 _atom_site_fract_z
 _atom_site_fract_occupancy
 B  B1  1  0.87500  0.87500  0.87500  1
 B  B2  1  0.12500  0.12500  0.12500  1
 C  C1  1  0.20273  0.20273  0.89181  1
 C  C2  1  0.10819  0.79727  0.79727  1
 C  C3  1  0.79727  0.79727  0.79727  1
 C  C4  1  0.79727  0.10819  0.79727  1
 C  C5  1  0.20273  0.20273  0.20273  1
 C  C6  1  0.20273  0.89181  0.20273  1
 C  C7  1  0.79727  0.79727  0.10819  1
 C  C8  1  0.89181  0.20273  0.20273  1
 N  N1  1  0.72133  0.25956  0.25956  1
 N  N2  1  0.74044  0.74044  0.74044  1
 N  N3  1  0.27867  0.74044  0.74044  1
 N  N4  1  0.25956  0.25956  0.25956  1
 N  N5  1  0.25956  0.25956  0.72133  1
 N  N6  1  0.74044  0.27867  0.74044  1
 N  N7  1  0.74044  0.74044  0.27867  1
 N  N8  1  0.25956  0.72133  0.25956  1
 Na  Na1  1  0.37500  0.37500  0.37500  1
 Na  Na2  1  0.62500  0.62500  0.62500  1
