CIF file written using JARVIS-Tools package.
data_RbUAgSe3
_symmetry_space_group_name_H-M  'Cmcm'
_cell_length_a       4.22402
_cell_length_b       7.76975
_cell_length_c       10.8494
_cell_angle_alpha    90
_cell_angle_beta     90
_cell_angle_gamma    105.773

_symmetry_Int_Tables_number  63
_chemical_formula_structural  RbUAgSe3
_chemical_formula_sum  Rb2U2Ag2Se6
_cell_volume  342.6659981314909
_cell_formula_units_Z  2
loop_
  _symmetry_equiv_pos_site_id
 _symmetry_equiv_pos_as_xyz
 1  'x, y, z'
loop_
 _atom_site_type_symbol
 _atom_site_label
 _atom_site_symmetry_multiplicity
 _atom_site_fract_x
 _atom_site_fract_y
 _atom_site_fract_z
 _atom_site_fract_occupancy
 Ag  Ag1  1  0.45609  0.91218  0.75000  1
 Ag  Ag2  1  0.54391  0.08782  0.25000  1
 Rb  Rb1  1  0.25361  0.50722  0.25000  1
 Rb  Rb2  1  0.74639  0.49278  0.75000  1
 Se  Se1  1  0.37259  0.74517  0.53929  1
 Se  Se2  1  0.62741  0.25483  0.46071  1
 Se  Se3  1  0.62741  0.25483  0.03929  1
 Se  Se4  1  0.06531  0.13061  0.75000  1
 Se  Se5  1  0.93469  0.86939  0.25000  1
 Se  Se6  1  0.37259  0.74517  0.96071  1
 U  U1  1  0.00000  0.00000  0.50000  1
 U  U2  1  0.00000  0.00000  0.00000  1
