CIF file written using JARVIS-Tools package.
data_FeNiP2O8
_symmetry_space_group_name_H-M  'P2_1/m'
_cell_length_a       4.73296
_cell_length_b       5.73555
_cell_length_c       9.69213
_cell_angle_alpha    90
_cell_angle_beta     89.6768
_cell_angle_gamma    90

_symmetry_Int_Tables_number  11
_chemical_formula_structural  FeNiP2O8
_chemical_formula_sum  Fe2Ni2P4O6
_cell_volume  263.09969607213037
_cell_formula_units_Z  2
loop_
  _symmetry_equiv_pos_site_id
 _symmetry_equiv_pos_as_xyz
 1  'x, y, z'
loop_
 _atom_site_type_symbol
 _atom_site_label
 _atom_site_symmetry_multiplicity
 _atom_site_fract_x
 _atom_site_fract_y
 _atom_site_fract_z
 _atom_site_fract_occupancy
 Fe  Fe1  1  0.06178  0.75000  0.27129  1
 Fe  Fe2  1  0.93822  0.25000  0.72871  1
 Ni  Ni1  1  0.56752  0.25000  0.22400  1
 Ni  Ni2  1  0.43248  0.75000  0.77600  1
 O  O1  1  0.32200  0.25000  0.06946  1
 O  O2  1  0.29773  0.75000  0.11239  1
 O  O3  1  0.76722  0.95924  0.16055  1
 O  O4  1  0.70227  0.25000  0.88761  1
 O  O5  1  0.26163  0.03959  0.33316  1
 O  O6  1  0.26163  0.46041  0.33316  1
 O  O7  1  0.76722  0.54076  0.16055  1
 O  O8  1  0.83738  0.75000  0.43803  1
 O  O9  1  0.16262  0.25000  0.56197  1
 O  O10  1  0.73837  0.96041  0.66684  1
 O  O11  1  0.78787  0.25000  0.38561  1
 O  O12  1  0.73837  0.53959  0.66684  1
 O  O13  1  0.23278  0.45924  0.83945  1
 O  O14  1  0.23278  0.04076  0.83945  1
 O  O15  1  0.21213  0.75000  0.61439  1
 O  O16  1  0.67800  0.75000  0.93054  1
 P  P1  1  0.38432  0.25000  0.91479  1
 P  P2  1  0.89217  0.75000  0.59391  1
 P  P3  1  0.10783  0.25000  0.40609  1
 P  P4  1  0.61568  0.75000  0.08521  1
