CIF file written using JARVIS-Tools package.
data_LiV2OF5
_symmetry_space_group_name_H-M  'P1'
_cell_length_a       4.5228
_cell_length_b       8.5509
_cell_length_c       8.6047
_cell_angle_alpha    60.2161
_cell_angle_beta     89.3627
_cell_angle_gamma    88.7854

_symmetry_Int_Tables_number  1
_chemical_formula_structural  LiV2OF5
_chemical_formula_sum  Li3V6O3F5
_cell_volume  288.7551011254527
_cell_formula_units_Z  3
loop_
  _symmetry_equiv_pos_site_id
 _symmetry_equiv_pos_as_xyz
 1  'x, y, z'
loop_
 _atom_site_type_symbol
 _atom_site_label
 _atom_site_symmetry_multiplicity
 _atom_site_fract_x
 _atom_site_fract_y
 _atom_site_fract_z
 _atom_site_fract_occupancy
 F  F1  1  0.73112  0.78394  0.77129  1
 F  F2  1  0.75991  0.11868  0.10603  1
 F  F3  1  0.25322  0.56406  0.89051  1
 F  F4  1  0.74826  0.11043  0.43407  1
 F  F5  1  0.76923  0.77685  0.11479  1
 F  F6  1  0.26051  0.56176  0.22891  1
 F  F7  1  0.26355  0.21665  0.55766  1
 F  F8  1  0.26815  0.22242  0.21800  1
 F  F9  1  0.73987  0.43793  0.45377  1
 F  F10  1  0.25054  0.89333  0.54698  1
 F  F11  1  0.23410  0.22687  0.89477  1
 F  F12  1  0.73975  0.44070  0.78307  1
 F  F13  1  0.23705  0.88373  0.22378  1
 F  F14  1  0.24253  0.88726  0.88520  1
 F  F15  1  0.25921  0.53925  0.56644  1
 Li  Li1  1  0.49169  0.66428  0.66767  1
 Li  Li2  1  0.00345  0.00033  0.00018  1
 Li  Li3  1  0.50031  0.33301  0.33476  1
 O  O1  1  0.76072  0.11686  0.75390  1
 O  O2  1  0.73885  0.78526  0.42013  1
 O  O3  1  0.74697  0.46723  0.08686  1
 V  V1  1  0.98531  0.66009  0.35531  1
 V  V2  1  0.98611  0.34928  0.01107  1
 V  V3  1  0.51432  0.66490  0.00920  1
 V  V4  1  0.98694  0.00384  0.66458  1
 V  V5  1  0.51315  0.98589  0.33121  1
 V  V6  1  0.51519  0.30516  0.68977  1
