CIF file written using JARVIS-Tools package.
data_Li2CuNiO4
_symmetry_space_group_name_H-M  'Imma'
_cell_length_a       6.01498
_cell_length_b       6.01499
_cell_length_c       5.56303
_cell_angle_alpha    117.545
_cell_angle_beta     117.545
_cell_angle_gamma    97.7538

_symmetry_Int_Tables_number  74
_chemical_formula_structural  Li2CuNiO4
_chemical_formula_sum  Li4Cu2Ni2O8
_cell_volume  141.80313118957793
_cell_formula_units_Z  2
loop_
  _symmetry_equiv_pos_site_id
 _symmetry_equiv_pos_as_xyz
 1  'x, y, z'
loop_
 _atom_site_type_symbol
 _atom_site_label
 _atom_site_symmetry_multiplicity
 _atom_site_fract_x
 _atom_site_fract_y
 _atom_site_fract_z
 _atom_site_fract_occupancy
 Cu  Cu1  1  0.00000  -0.00000  0.50000  1
 Cu  Cu2  1  0.00000  0.00000  0.00000  1
 Li  Li1  1  0.00000  0.50000  0.50000  1
 Li  Li2  1  0.50000  0.50000  0.50000  1
 Li  Li3  1  0.50000  0.00000  0.00000  1
 Li  Li4  1  0.50000  0.50000  0.00000  1
 Ni  Ni1  1  -0.00000  0.50000  0.00000  1
 Ni  Ni2  1  0.50000  0.00000  0.50000  1
 O  O1  1  0.26797  0.73206  0.01511  1
 O  O2  1  0.26846  0.19496  0.48173  1
 O  O3  1  0.26794  0.73203  0.48489  1
 O  O4  1  0.80504  0.73154  0.01827  1
 O  O5  1  0.19496  0.26846  0.98173  1
 O  O6  1  0.73206  0.26797  0.51511  1
 O  O7  1  0.73154  0.80504  0.51827  1
 O  O8  1  0.73203  0.26794  0.98489  1
