CIF file written using JARVIS-Tools package.
data_Mo8P5
_symmetry_space_group_name_H-M  'Pm'
_cell_length_a       6.59896
_cell_length_b       3.21954
_cell_length_c       9.47207
_cell_angle_alpha    90
_cell_angle_beta     109.432
_cell_angle_gamma    90

_symmetry_Int_Tables_number  6
_chemical_formula_structural  Mo8P5
_chemical_formula_sum  Mo8P5
_cell_volume  189.77699396014924
_cell_formula_units_Z  1
loop_
  _symmetry_equiv_pos_site_id
 _symmetry_equiv_pos_as_xyz
 1  'x, y, z'
loop_
 _atom_site_type_symbol
 _atom_site_label
 _atom_site_symmetry_multiplicity
 _atom_site_fract_x
 _atom_site_fract_y
 _atom_site_fract_z
 _atom_site_fract_occupancy
 Mo  Mo1  1  0.99400  0.00000  0.99593  1
 Mo  Mo2  1  0.76387  0.00000  0.22014  1
 Mo  Mo3  1  0.21055  0.00000  0.75086  1
 Mo  Mo4  1  0.64039  0.00000  0.69466  1
 Mo  Mo5  1  0.19958  0.00000  0.42885  1
 Mo  Mo6  1  0.60330  0.50000  0.94910  1
 Mo  Mo7  1  0.39160  0.50000  0.21887  1
 Mo  Mo8  1  0.87124  0.50000  0.50288  1
 P  P1  1  0.57584  0.00000  0.42569  1
 P  P2  1  0.37493  0.00000  0.01832  1
 P  P3  1  0.93821  0.50000  0.79047  1
 P  P4  1  0.34722  0.50000  0.62315  1
 P  P5  1  0.02197  0.50000  0.21078  1
