CIF file written using JARVIS-Tools package.
data_Te2Mo3WS6
_symmetry_space_group_name_H-M  'P3m1'
_cell_length_a       3.27688
_cell_length_b       3.27687
_cell_length_c       35.2349
_cell_angle_alpha    90.0019
_cell_angle_beta     90
_cell_angle_gamma    120

_symmetry_Int_Tables_number  156
_chemical_formula_structural  Te2Mo3WS6
_chemical_formula_sum  Te2Mo3WS6
_cell_volume  327.65996385978013
_cell_formula_units_Z  1
loop_
  _symmetry_equiv_pos_site_id
 _symmetry_equiv_pos_as_xyz
 1  'x, y, z'
loop_
 _atom_site_type_symbol
 _atom_site_label
 _atom_site_symmetry_multiplicity
 _atom_site_fract_x
 _atom_site_fract_y
 _atom_site_fract_z
 _atom_site_fract_occupancy
 Mo  Mo1  1  0.33330  0.66661  0.09074  1
 Mo  Mo2  1  0.66667  0.33335  0.28325  1
 Mo  Mo3  1  0.66669  0.33339  0.65221  1
 S  S1  1  0.33336  0.66673  0.69587  1
 S  S2  1  0.66663  0.33326  0.04712  1
 S  S3  1  0.66665  0.33331  0.43278  1
 S  S4  1  0.66665  0.33329  0.13443  1
 S  S5  1  0.66667  0.33335  0.52063  1
 S  S6  1  0.33335  0.66670  0.60852  1
 Te  Te1  1  0.33335  0.66670  0.33815  1
 Te  Te2  1  0.33333  0.66666  0.22835  1
 W  W1  1  0.33333  0.66666  0.47671  1
