CIF file written using JARVIS-Tools package.
data_HoSO
_symmetry_space_group_name_H-M  'Cmce'
_cell_length_a       6.78403
_cell_length_b       6.78403
_cell_length_c       5.63921
_cell_angle_alpha    90
_cell_angle_beta     90
_cell_angle_gamma    130.795

_symmetry_Int_Tables_number  64
_chemical_formula_structural  HoSO
_chemical_formula_sum  Ho4S4O4
_cell_volume  196.48087332128972
_cell_formula_units_Z  4
loop_
  _symmetry_equiv_pos_site_id
 _symmetry_equiv_pos_as_xyz
 1  'x, y, z'
loop_
 _atom_site_type_symbol
 _atom_site_label
 _atom_site_symmetry_multiplicity
 _atom_site_fract_x
 _atom_site_fract_y
 _atom_site_fract_z
 _atom_site_fract_occupancy
 Ho  Ho1  1  0.16379  0.83621  0.50000  1
 Ho  Ho2  1  0.33621  0.66379  0.00000  1
 Ho  Ho3  1  0.66379  0.33621  0.00000  1
 Ho  Ho4  1  0.83621  0.16379  0.50000  1
 O  O1  1  0.49268  0.99268  0.25000  1
 O  O2  1  0.00732  0.50732  0.75000  1
 O  O3  1  0.50732  0.00732  0.75000  1
 O  O4  1  0.99268  0.49268  0.25000  1
 S  S1  1  0.36847  0.36847  0.36780  1
 S  S2  1  0.86847  0.86847  0.13220  1
 S  S3  1  0.63153  0.63153  0.63220  1
 S  S4  1  0.13153  0.13153  0.86780  1
