CIF file written using JARVIS-Tools package.
data_RbHO
_symmetry_space_group_name_H-M  'P2_1/m'
_cell_length_a       4.16443
_cell_length_b       4.16736
_cell_length_c       5.98996
_cell_angle_alpha    90
_cell_angle_beta     104.232
_cell_angle_gamma    90

_symmetry_Int_Tables_number  11
_chemical_formula_structural  RbHO
_chemical_formula_sum  Rb2H2O2
_cell_volume  100.76307423869872
_cell_formula_units_Z  2
loop_
  _symmetry_equiv_pos_site_id
 _symmetry_equiv_pos_as_xyz
 1  'x, y, z'
loop_
 _atom_site_type_symbol
 _atom_site_label
 _atom_site_symmetry_multiplicity
 _atom_site_fract_x
 _atom_site_fract_y
 _atom_site_fract_z
 _atom_site_fract_occupancy
 H  H1  1  0.52176  0.75000  0.07857  1
 H  H2  1  0.47824  0.25000  0.92143  1
 O  O1  1  0.67351  0.75000  0.23131  1
 O  O2  1  0.32649  0.25000  0.76869  1
 Rb  Rb1  1  0.82694  0.75000  0.71075  1
 Rb  Rb2  1  0.17306  0.25000  0.28925  1
