CIF file written using JARVIS-Tools package.
data_NaCrAsCO7
_symmetry_space_group_name_H-M  'P2_1'
_cell_length_a       5.29235
_cell_length_b       6.40415
_cell_length_c       8.76615
_cell_angle_alpha    90
_cell_angle_beta     87.4752
_cell_angle_gamma    90

_symmetry_Int_Tables_number  4
_chemical_formula_structural  NaCrAsCO7
_chemical_formula_sum  Na2Cr2As2C2O4
_cell_volume  296.8229079733464
_cell_formula_units_Z  2
loop_
  _symmetry_equiv_pos_site_id
 _symmetry_equiv_pos_as_xyz
 1  'x, y, z'
loop_
 _atom_site_type_symbol
 _atom_site_label
 _atom_site_symmetry_multiplicity
 _atom_site_fract_x
 _atom_site_fract_y
 _atom_site_fract_z
 _atom_site_fract_occupancy
 As  As1  1  0.29413  0.74430  0.43324  1
 As  As2  1  0.70587  0.24430  0.56676  1
 C  C1  1  0.37228  0.25361  0.06510  1
 C  C2  1  0.62772  0.75361  0.93490  1
 Cr  Cr1  1  0.23198  0.23826  0.32821  1
 Cr  Cr2  1  0.76802  0.73826  0.67179  1
 Na  Na1  1  0.84093  0.52562  0.17604  1
 Na  Na2  1  0.15907  0.02562  0.82396  1
 O  O1  1  0.54880  0.74629  0.06903  1
 O  O2  1  0.13068  0.24491  0.11272  1
 O  O3  1  0.86932  0.74491  0.88728  1
 O  O4  1  0.22513  0.95266  0.31682  1
 O  O5  1  0.21276  0.54027  0.32023  1
 O  O6  1  0.51796  0.26471  0.18579  1
 O  O7  1  0.78724  0.04027  0.67977  1
 O  O8  1  0.39031  0.23616  0.52558  1
 O  O9  1  0.11259  0.75537  0.59961  1
 O  O10  1  0.88741  0.25537  0.40039  1
 O  O11  1  0.77487  0.45266  0.68318  1
 O  O12  1  0.48204  0.76471  0.81421  1
 O  O13  1  0.60969  0.73616  0.47442  1
 O  O14  1  0.45120  0.24629  0.93097  1
