CIF file written using JARVIS-Tools package.
data_NdGaO3
_symmetry_space_group_name_H-M  'Pnma'
_cell_length_a       5.46535
_cell_length_b       5.5861
_cell_length_c       7.78041
_cell_angle_alpha    90
_cell_angle_beta     90
_cell_angle_gamma    90

_symmetry_Int_Tables_number  62
_chemical_formula_structural  NdGaO3
_chemical_formula_sum  Nd4Ga4O2
_cell_volume  237.5358648406249
_cell_formula_units_Z  4
loop_
  _symmetry_equiv_pos_site_id
 _symmetry_equiv_pos_as_xyz
 1  'x, y, z'
loop_
 _atom_site_type_symbol
 _atom_site_label
 _atom_site_symmetry_multiplicity
 _atom_site_fract_x
 _atom_site_fract_y
 _atom_site_fract_z
 _atom_site_fract_occupancy
 Ga  Ga1  1  0.00000  0.50000  0.00000  1
 Ga  Ga2  1  0.00000  0.50000  0.50000  1
 Ga  Ga3  1  0.50000  0.00000  0.00000  1
 Ga  Ga4  1  0.50000  0.00000  0.50000  1
 Nd  Nd1  1  0.48803  0.45046  0.25000  1
 Nd  Nd2  1  0.51197  0.54954  0.75000  1
 Nd  Nd3  1  0.01197  0.95046  0.25000  1
 Nd  Nd4  1  0.98803  0.04954  0.75000  1
 O  O1  1  0.20854  0.20803  0.45473  1
 O  O2  1  0.08477  0.47954  0.75000  1
 O  O3  1  0.29146  0.70803  0.45473  1
 O  O4  1  0.70854  0.29197  0.95473  1
 O  O5  1  0.79146  0.79197  0.95473  1
 O  O6  1  0.41523  0.97954  0.75000  1
 O  O7  1  0.29146  0.70803  0.04527  1
 O  O8  1  0.70854  0.29197  0.54527  1
 O  O9  1  0.20854  0.20803  0.04527  1
 O  O10  1  0.58477  0.02046  0.25000  1
 O  O11  1  0.79146  0.79197  0.54527  1
 O  O12  1  0.91523  0.52046  0.25000  1
