CIF file written using JARVIS-Tools package.
data_Na3SrPCO7
_symmetry_space_group_name_H-M  'P2_1/m'
_cell_length_a       5.18142
_cell_length_b       7.18775
_cell_length_c       9.41636
_cell_angle_alpha    90
_cell_angle_beta     89.6796
_cell_angle_gamma    90

_symmetry_Int_Tables_number  11
_chemical_formula_structural  Na3SrPCO7
_chemical_formula_sum  Na6Sr2P2C2O4
_cell_volume  350.68535187607944
_cell_formula_units_Z  2
loop_
  _symmetry_equiv_pos_site_id
 _symmetry_equiv_pos_as_xyz
 1  'x, y, z'
loop_
 _atom_site_type_symbol
 _atom_site_label
 _atom_site_symmetry_multiplicity
 _atom_site_fract_x
 _atom_site_fract_y
 _atom_site_fract_z
 _atom_site_fract_occupancy
 C  C1  1  0.26186  0.25000  0.06454  1
 C  C2  1  0.73814  0.75000  0.93546  1
 Na  Na1  1  0.23674  0.75000  0.08032  1
 Na  Na2  1  0.76015  -0.00105  0.23997  1
 Na  Na3  1  0.76015  0.50105  0.23997  1
 Na  Na4  1  0.23985  0.49895  0.76003  1
 Na  Na5  1  0.23985  0.00105  0.76003  1
 Na  Na6  1  0.76326  0.25000  0.91968  1
 O  O1  1  0.96421  0.75000  0.87431  1
 O  O2  1  0.03579  0.25000  0.12569  1
 O  O3  1  0.47165  0.25000  0.14049  1
 O  O4  1  0.18444  0.92336  0.31804  1
 O  O5  1  0.18444  0.57664  0.31804  1
 O  O6  1  0.72107  0.75000  0.07289  1
 O  O7  1  0.75700  0.25000  0.44327  1
 O  O8  1  0.24300  0.75000  0.55673  1
 O  O9  1  0.52835  0.75000  0.85951  1
 O  O10  1  0.81556  0.42336  0.68196  1
 O  O11  1  0.81556  0.07664  0.68196  1
 O  O12  1  0.59682  0.75000  0.37428  1
 O  O13  1  0.40318  0.25000  0.62572  1
 O  O14  1  0.27893  0.25000  0.92711  1
 P  P1  1  0.29888  0.75000  0.39254  1
 P  P2  1  0.70112  0.25000  0.60746  1
 Sr  Sr1  1  0.76194  0.75000  0.61612  1
 Sr  Sr2  1  0.23806  0.25000  0.38388  1
