CIF file written using JARVIS-Tools package.
data_Sm2MgIrO6
_symmetry_space_group_name_H-M  'P2_1/c'
_cell_length_a       5.40341
_cell_length_b       5.75497
_cell_length_c       9.43077
_cell_angle_alpha    90
_cell_angle_beta     124.573
_cell_angle_gamma    90

_symmetry_Int_Tables_number  14
_chemical_formula_structural  Sm2MgIrO6
_chemical_formula_sum  Sm4Mg2Ir2O2
_cell_volume  241.4741662712062
_cell_formula_units_Z  2
loop_
  _symmetry_equiv_pos_site_id
 _symmetry_equiv_pos_as_xyz
 1  'x, y, z'
loop_
 _atom_site_type_symbol
 _atom_site_label
 _atom_site_symmetry_multiplicity
 _atom_site_fract_x
 _atom_site_fract_y
 _atom_site_fract_z
 _atom_site_fract_occupancy
 Ir  Ir1  1  0.50000  0.50000  0.00000  1
 Ir  Ir2  1  0.50000  0.00000  0.50000  1
 Mg  Mg1  1  0.00000  0.00000  0.00000  1
 Mg  Mg2  1  0.00000  0.50000  0.50000  1
 O  O1  1  0.85489  0.96581  0.74876  1
 O  O2  1  0.24688  0.69802  0.05343  1
 O  O3  1  0.63469  0.80012  0.94606  1
 O  O4  1  0.85489  0.53419  0.24876  1
 O  O5  1  0.14511  0.03419  0.25124  1
 O  O6  1  0.36531  0.19988  0.05394  1
 O  O7  1  0.75312  0.19802  0.44657  1
 O  O8  1  0.75312  0.30198  0.94657  1
 O  O9  1  0.36531  0.30012  0.55394  1
 O  O10  1  0.63469  0.69988  0.44606  1
 O  O11  1  0.14511  0.46581  0.75124  1
 O  O12  1  0.24688  0.80198  0.55343  1
 Sm  Sm1  1  0.73108  0.56921  0.75083  1
 Sm  Sm2  1  0.26892  0.06921  0.74917  1
 Sm  Sm3  1  0.73108  0.93079  0.25083  1
 Sm  Sm4  1  0.26892  0.43079  0.24917  1
