CIF file written using JARVIS-Tools package.
data_AgAsO2
_symmetry_space_group_name_H-M  'C2'
_cell_length_a       4.49929
_cell_length_b       5.19726
_cell_length_c       6.81075
_cell_angle_alpha    107.953
_cell_angle_beta     90
_cell_angle_gamma    115.649

_symmetry_Int_Tables_number  5
_chemical_formula_structural  AgAsO2
_chemical_formula_sum  Ag2As2O4
_cell_volume  134.91640400995377
_cell_formula_units_Z  2
loop_
  _symmetry_equiv_pos_site_id
 _symmetry_equiv_pos_as_xyz
 1  'x, y, z'
loop_
 _atom_site_type_symbol
 _atom_site_label
 _atom_site_symmetry_multiplicity
 _atom_site_fract_x
 _atom_site_fract_y
 _atom_site_fract_z
 _atom_site_fract_occupancy
 Ag  Ag1  1  0.36666  0.76814  0.16815  1
 Ag  Ag2  1  0.59853  0.23186  0.83185  1
 As  As1  1  0.26365  0.67187  0.66757  1
 As  As2  1  0.59178  0.32813  0.33243  1
 O  O1  1  0.20197  0.44675  0.82183  1
 O  O2  1  0.75522  0.55325  0.17817  1
 O  O3  1  0.82498  0.58102  0.59868  1
 O  O4  1  0.24396  0.41898  0.40132  1
