CIF file written using JARVIS-Tools package.
data_HoTaO4
_symmetry_space_group_name_H-M  'P2/c'
_cell_length_a       5.12725
_cell_length_b       5.45174
_cell_length_c       5.31925
_cell_angle_alpha    90
_cell_angle_beta     96.4205
_cell_angle_gamma    90

_symmetry_Int_Tables_number  13
_chemical_formula_structural  HoTaO4
_chemical_formula_sum  Ho2Ta2O8
_cell_volume  147.75328605119097
_cell_formula_units_Z  2
loop_
  _symmetry_equiv_pos_site_id
 _symmetry_equiv_pos_as_xyz
 1  'x, y, z'
loop_
 _atom_site_type_symbol
 _atom_site_label
 _atom_site_symmetry_multiplicity
 _atom_site_fract_x
 _atom_site_fract_y
 _atom_site_fract_z
 _atom_site_fract_occupancy
 Ho  Ho1  1  -0.00000  0.76501  0.25000  1
 Ho  Ho2  1  -0.00000  0.23499  0.75000  1
 O  O1  1  0.26599  0.56185  0.99119  1
 O  O2  1  0.73401  0.56185  0.50881  1
 O  O3  1  0.73401  0.43815  0.00881  1
 O  O4  1  0.26599  0.43815  0.49119  1
 O  O5  1  0.75015  0.07976  0.40279  1
 O  O6  1  0.24985  0.07976  0.09721  1
 O  O7  1  0.24985  0.92024  0.59721  1
 O  O8  1  0.75015  0.92024  0.90279  1
 Ta  Ta1  1  0.50000  0.69703  0.75000  1
 Ta  Ta2  1  0.50000  0.30297  0.25000  1
