CIF file written using JARVIS-Tools package.
data_SrH2Cl2O
_symmetry_space_group_name_H-M  'Pnma'
_cell_length_a       4.04516
_cell_length_b       8.11096
_cell_length_c       12.0916
_cell_angle_alpha    90
_cell_angle_beta     90
_cell_angle_gamma    90

_symmetry_Int_Tables_number  62
_chemical_formula_structural  SrH2Cl2O
_chemical_formula_sum  Sr4H8Cl8O4
_cell_volume  396.7265249880218
_cell_formula_units_Z  4
loop_
  _symmetry_equiv_pos_site_id
 _symmetry_equiv_pos_as_xyz
 1  'x, y, z'
loop_
 _atom_site_type_symbol
 _atom_site_label
 _atom_site_symmetry_multiplicity
 _atom_site_fract_x
 _atom_site_fract_y
 _atom_site_fract_z
 _atom_site_fract_occupancy
 Cl  Cl1  1  0.25000  0.04290  0.38520  1
 Cl  Cl2  1  0.75000  0.24271  0.19417  1
 Cl  Cl3  1  0.75000  0.74271  0.30583  1
 Cl  Cl4  1  0.75000  -0.04290  0.61480  1
 Cl  Cl5  1  0.25000  0.75729  0.80583  1
 Cl  Cl6  1  0.25000  0.25729  0.69417  1
 Cl  Cl7  1  0.75000  0.45710  0.88520  1
 Cl  Cl8  1  0.25000  0.54290  0.11480  1
 H  H1  1  0.25000  0.94176  0.16794  1
 H  H2  1  0.75000  0.55824  0.66794  1
 H  H3  1  0.75000  0.60098  0.25491  1
 H  H4  1  0.25000  0.89902  0.75491  1
 H  H5  1  0.25000  0.39902  0.74509  1
 H  H6  1  0.75000  0.10098  0.24509  1
 H  H7  1  0.25000  0.44176  0.33206  1
 H  H8  1  0.75000  0.05824  0.83206  1
 O  O1  1  0.75000  0.55592  0.58701  1
 O  O2  1  0.25000  0.44408  0.41299  1
 O  O3  1  0.75000  0.05592  0.91299  1
 O  O4  1  0.25000  0.94408  0.08701  1
 Sr  Sr1  1  0.25000  0.21179  -0.01665  1
 Sr  Sr2  1  0.25000  0.71179  0.51665  1
 Sr  Sr3  1  0.75000  0.78821  0.01665  1
 Sr  Sr4  1  0.75000  0.28821  0.48335  1
