CIF file written using JARVIS-Tools package.
data_Ca2Zn2CuP3
_symmetry_space_group_name_H-M  'P6_3/mmc'
_cell_length_a       4.05248
_cell_length_b       4.05248
_cell_length_c       21.427
_cell_angle_alpha    90
_cell_angle_beta     90
_cell_angle_gamma    120

_symmetry_Int_Tables_number  194
_chemical_formula_structural  Ca2Zn2CuP3
_chemical_formula_sum  Ca4Zn4Cu2P6
_cell_volume  304.7428984535096
_cell_formula_units_Z  2
loop_
  _symmetry_equiv_pos_site_id
 _symmetry_equiv_pos_as_xyz
 1  'x, y, z'
loop_
 _atom_site_type_symbol
 _atom_site_label
 _atom_site_symmetry_multiplicity
 _atom_site_fract_x
 _atom_site_fract_y
 _atom_site_fract_z
 _atom_site_fract_occupancy
 Ca  Ca1  1  0.00000  0.00000  0.65892  1
 Ca  Ca2  1  0.00000  0.00000  0.34108  1
 Ca  Ca3  1  0.00000  0.00000  0.15892  1
 Ca  Ca4  1  0.00000  0.00000  0.84108  1
 Cu  Cu1  1  0.66667  0.33333  0.75000  1
 Cu  Cu2  1  0.33333  0.66667  0.25000  1
 P  P1  1  0.66667  0.33333  0.57633  1
 P  P2  1  0.33333  0.66667  0.42367  1
 P  P3  1  0.33333  0.66667  0.75000  1
 P  P4  1  0.66667  0.33333  0.92367  1
 P  P5  1  0.33333  0.66667  0.07633  1
 P  P6  1  0.66667  0.33333  0.25000  1
 Zn  Zn1  1  0.33333  0.66667  0.95685  1
 Zn  Zn2  1  0.66667  0.33333  0.45685  1
 Zn  Zn3  1  0.66667  0.33333  0.04315  1
 Zn  Zn4  1  0.33333  0.66667  0.54315  1
