CIF file written using JARVIS-Tools package.
data_Y4SiS3
_symmetry_space_group_name_H-M  'I4/mmm'
_cell_length_a       5.61024
_cell_length_b       5.61028
_cell_length_c       6.88348
_cell_angle_alpha    114.05
_cell_angle_beta     114.049
_cell_angle_gamma    90

_symmetry_Int_Tables_number  139
_chemical_formula_structural  Y4SiS3
_chemical_formula_sum  Y4SiS3
_cell_volume  177.0576945084243
_cell_formula_units_Z  1
loop_
  _symmetry_equiv_pos_site_id
 _symmetry_equiv_pos_as_xyz
 1  'x, y, z'
loop_
 _atom_site_type_symbol
 _atom_site_label
 _atom_site_symmetry_multiplicity
 _atom_site_fract_x
 _atom_site_fract_y
 _atom_site_fract_z
 _atom_site_fract_occupancy
 S  S1  1  0.49736  0.49752  0.99726  1
 S  S2  1  0.24734  0.74750  0.49727  1
 S  S3  1  0.74734  0.24750  0.49727  1
 Si  Si1  1  0.99733  0.99753  0.99725  1
 Y  Y1  1  0.74893  0.74907  0.50045  1
 Y  Y2  1  0.24576  0.24591  0.49409  1
 Y  Y3  1  0.99735  0.49754  0.99727  1
 Y  Y4  1  0.49734  0.99752  0.99727  1
