CIF file written using JARVIS-Tools package.
data_LiFe3O2F6
_symmetry_space_group_name_H-M  'P2/m'
_cell_length_a       4.94126
_cell_length_b       4.43034
_cell_length_c       5.64456
_cell_angle_alpha    90.0608
_cell_angle_beta     90.0303
_cell_angle_gamma    89.8848

_symmetry_Int_Tables_number  10
_chemical_formula_structural  LiFe3O2F6
_chemical_formula_sum  LiFe3O2F6
_cell_volume  123.56738557663597
_cell_formula_units_Z  1
loop_
  _symmetry_equiv_pos_site_id
 _symmetry_equiv_pos_as_xyz
 1  'x, y, z'
loop_
 _atom_site_type_symbol
 _atom_site_label
 _atom_site_symmetry_multiplicity
 _atom_site_fract_x
 _atom_site_fract_y
 _atom_site_fract_z
 _atom_site_fract_occupancy
 F  F1  1  0.94738  0.25822  0.91720  1
 F  F2  1  0.94734  0.25817  0.39614  1
 F  F3  1  0.43302  0.27294  0.65668  1
 F  F4  1  0.59730  0.73994  -0.08251  1
 F  F5  1  0.11158  0.72512  0.65694  1
 F  F6  1  0.59727  0.73983  0.39643  1
 Fe  Fe1  1  0.27234  0.49908  0.92059  1
 Fe  Fe2  1  0.77233  0.49904  0.15680  1
 Fe  Fe3  1  0.27229  0.49901  0.39304  1
 Li  Li1  1  -0.22765  0.99902  0.65677  1
 O  O1  1  0.44476  0.28830  0.15670  1
 O  O2  1  0.09989  0.70979  0.15692  1
