CIF file written using JARVIS-Tools package.
data_Li2MgAu
_symmetry_space_group_name_H-M  'Immm'
_cell_length_a       11.2084
_cell_length_b       6.23742
_cell_length_c       6.23743
_cell_angle_alpha    33.0342
_cell_angle_beta     26.0411
_cell_angle_gamma    26.0411

_symmetry_Int_Tables_number  71
_chemical_formula_structural  Li2MgAu
_chemical_formula_sum  Li2MgAu
_cell_volume  82.94569074040348
_cell_formula_units_Z  1
loop_
  _symmetry_equiv_pos_site_id
 _symmetry_equiv_pos_as_xyz
 1  'x, y, z'
loop_
 _atom_site_type_symbol
 _atom_site_label
 _atom_site_symmetry_multiplicity
 _atom_site_fract_x
 _atom_site_fract_y
 _atom_site_fract_z
 _atom_site_fract_occupancy
 Au  Au1  1  0.50000  -0.00000  -0.00000  1
 Li  Li1  1  0.71776  0.00000  -0.00000  1
 Li  Li2  1  0.28224  -0.00000  0.00000  1
 Mg  Mg1  1  0.00000  0.00000  0.00000  1
