CIF file written using JARVIS-Tools package.
data_CuBrO2
_symmetry_space_group_name_H-M  'C222_1'
_cell_length_a       3.65754
_cell_length_b       6.49502
_cell_length_c       6.49228
_cell_angle_alpha    109.809
_cell_angle_beta     89.9477
_cell_angle_gamma    89.9831

_symmetry_Int_Tables_number  20
_chemical_formula_structural  CuBrO2
_chemical_formula_sum  Cu2Br2O4
_cell_volume  145.10316165674678
_cell_formula_units_Z  2
loop_
  _symmetry_equiv_pos_site_id
 _symmetry_equiv_pos_as_xyz
 1  'x, y, z'
loop_
 _atom_site_type_symbol
 _atom_site_label
 _atom_site_symmetry_multiplicity
 _atom_site_fract_x
 _atom_site_fract_y
 _atom_site_fract_z
 _atom_site_fract_occupancy
 Br  Br1  1  0.47915  0.59180  0.82188  1
 Br  Br2  1  -0.02016  0.25121  0.16284  1
 Cu  Cu1  1  0.47968  0.10211  0.31185  1
 Cu  Cu2  1  0.97932  0.74080  0.67272  1
 O  O1  1  0.17983  0.10164  0.55491  1
 O  O2  1  0.77931  0.85905  0.31202  1
 O  O3  1  0.27864  0.98387  0.67255  1
 O  O4  1  0.68027  0.74127  0.42967  1
