CIF file written using JARVIS-Tools package.
data_K2AlPCO7
_symmetry_space_group_name_H-M  'P2_1/m'
_cell_length_a       5.41131
_cell_length_b       6.57762
_cell_length_c       9.57268
_cell_angle_alpha    90
_cell_angle_beta     89.4303
_cell_angle_gamma    90

_symmetry_Int_Tables_number  11
_chemical_formula_structural  K2AlPCO7
_chemical_formula_sum  K4Al2P2C2O4
_cell_volume  340.7086316880386
_cell_formula_units_Z  2
loop_
  _symmetry_equiv_pos_site_id
 _symmetry_equiv_pos_as_xyz
 1  'x, y, z'
loop_
 _atom_site_type_symbol
 _atom_site_label
 _atom_site_symmetry_multiplicity
 _atom_site_fract_x
 _atom_site_fract_y
 _atom_site_fract_z
 _atom_site_fract_occupancy
 Al  Al1  1  0.77099  0.75000  0.35943  1
 Al  Al2  1  0.22901  0.25000  0.64057  1
 C  C1  1  0.72674  0.75000  0.11045  1
 C  C2  1  0.27326  0.25000  0.88955  1
 K  K1  1  0.24479  0.02920  0.23941  1
 K  K2  1  0.24479  0.47080  0.23941  1
 K  K3  1  0.75521  0.52920  0.76059  1
 K  K4  1  0.75521  0.97080  0.76059  1
 O  O1  1  0.30551  0.25000  0.01813  1
 O  O2  1  0.05888  0.25000  0.82639  1
 O  O3  1  0.54594  0.75000  0.20494  1
 O  O4  1  0.76821  0.05587  0.34883  1
 O  O5  1  0.76821  0.44413  0.34883  1
 O  O6  1  0.94112  0.75000  0.17361  1
 O  O7  1  0.45833  0.25000  0.49516  1
 O  O8  1  0.23179  0.94413  0.65117  1
 O  O9  1  0.91768  0.25000  0.55932  1
 O  O10  1  0.23179  0.55587  0.65117  1
 O  O11  1  0.08232  0.75000  0.44068  1
 O  O12  1  0.45406  0.25000  0.79506  1
 O  O13  1  0.54167  0.75000  0.50484  1
 O  O14  1  0.69449  0.75000  0.98187  1
 P  P1  1  0.27014  0.75000  0.56256  1
 P  P2  1  0.72986  0.25000  0.43744  1
