CIF file written using JARVIS-Tools package.
data_Li2BiO3
_symmetry_space_group_name_H-M  'Pnna'
_cell_length_a       5.72172
_cell_length_b       5.77142
_cell_length_c       9.43127
_cell_angle_alpha    90
_cell_angle_beta     90
_cell_angle_gamma    90

_symmetry_Int_Tables_number  52
_chemical_formula_structural  Li2BiO3
_chemical_formula_sum  Li8Bi4O2
_cell_volume  311.4435441814133
_cell_formula_units_Z  4
loop_
  _symmetry_equiv_pos_site_id
 _symmetry_equiv_pos_as_xyz
 1  'x, y, z'
loop_
 _atom_site_type_symbol
 _atom_site_label
 _atom_site_symmetry_multiplicity
 _atom_site_fract_x
 _atom_site_fract_y
 _atom_site_fract_z
 _atom_site_fract_occupancy
 Bi  Bi1  1  0.50000  0.75000  0.39918  1
 Bi  Bi2  1  0.00000  0.75000  0.10082  1
 Bi  Bi3  1  0.00000  0.25000  0.89918  1
 Bi  Bi4  1  0.50000  0.25000  0.60082  1
 Li  Li1  1  0.75000  0.24898  0.25000  1
 Li  Li2  1  0.25000  0.25102  0.25000  1
 Li  Li3  1  0.50000  0.00000  0.00000  1
 Li  Li4  1  0.50000  0.50000  0.00000  1
 Li  Li5  1  0.75000  0.74898  0.75000  1
 Li  Li6  1  0.25000  0.75102  0.75000  1
 Li  Li7  1  0.00000  0.00000  0.50000  1
 Li  Li8  1  0.00000  0.50000  0.50000  1
 O  O1  1  0.75000  0.41729  0.75000  1
 O  O2  1  0.71700  0.41454  0.42250  1
 O  O3  1  0.78300  0.41454  0.07750  1
 O  O4  1  0.28300  0.58546  0.57750  1
 O  O5  1  0.21700  0.58546  0.92250  1
 O  O6  1  0.75000  0.91729  0.25000  1
 O  O7  1  0.71700  0.91454  0.57750  1
 O  O8  1  0.78300  0.91454  0.92250  1
 O  O9  1  0.28300  0.08546  0.42250  1
 O  O10  1  0.25000  0.08271  0.75000  1
 O  O11  1  0.25000  0.58271  0.25000  1
 O  O12  1  0.21700  0.08546  0.07750  1
