CIF file written using JARVIS-Tools package.
data_Li2MgGa
_symmetry_space_group_name_H-M  'Immm'
_cell_length_a       11.5122
_cell_length_b       11.2497
_cell_length_c       11.2497
_cell_angle_alpha    60.2685
_cell_angle_beta     59.2252
_cell_angle_gamma    59.2252

_symmetry_Int_Tables_number  71
_chemical_formula_structural  Li2MgGa
_chemical_formula_sum  Li2MgGa
_cell_volume  1019.9711216112001
_cell_formula_units_Z  1
loop_
  _symmetry_equiv_pos_site_id
 _symmetry_equiv_pos_as_xyz
 1  'x, y, z'
loop_
 _atom_site_type_symbol
 _atom_site_label
 _atom_site_symmetry_multiplicity
 _atom_site_fract_x
 _atom_site_fract_y
 _atom_site_fract_z
 _atom_site_fract_occupancy
 Ga  Ga1  1  0.50000  -0.00000  0.00000  1
 Li  Li1  1  0.73698  -0.00000  0.00000  1
 Li  Li2  1  0.26302  0.00000  -0.00000  1
 Mg  Mg1  1  0.00000  0.00000  0.00000  1
