CIF file written using JARVIS-Tools package.
data_Li2NiBiO4
_symmetry_space_group_name_H-M  'I-4m2'
_cell_length_a       5.42946
_cell_length_b       4.44459
_cell_length_c       4.44459
_cell_angle_alpha    90
_cell_angle_beta     65.8389
_cell_angle_gamma    65.8389

_symmetry_Int_Tables_number  119
_chemical_formula_structural  Li2NiBiO4
_chemical_formula_sum  Li2NiBiO4
_cell_volume  87.46053343688496
_cell_formula_units_Z  1
loop_
  _symmetry_equiv_pos_site_id
 _symmetry_equiv_pos_as_xyz
 1  'x, y, z'
loop_
 _atom_site_type_symbol
 _atom_site_label
 _atom_site_symmetry_multiplicity
 _atom_site_fract_x
 _atom_site_fract_y
 _atom_site_fract_z
 _atom_site_fract_occupancy
 Bi  Bi1  1  0.00000  0.00000  0.00000  1
 Li  Li1  1  0.50000  0.75000  0.25000  1
 Li  Li2  1  -0.00000  0.50000  0.50000  1
 Ni  Ni1  1  0.50000  0.25000  0.75000  1
 O  O1  1  0.93529  0.03236  0.53236  1
 O  O2  1  0.51997  0.74001  0.74001  1
 O  O3  1  0.48003  0.25999  0.25999  1
 O  O4  1  0.06471  0.46764  0.96764  1
