CIF file written using JARVIS-Tools package.
data_MoWSeS3
_symmetry_space_group_name_H-M  'P3m1'
_cell_length_a       3.22353
_cell_length_b       3.22352
_cell_length_c       34.1074
_cell_angle_alpha    90.0003
_cell_angle_beta     90
_cell_angle_gamma    120

_symmetry_Int_Tables_number  156
_chemical_formula_structural  MoWSeS3
_chemical_formula_sum  Mo2W2Se2S6
_cell_volume  306.93146624219867
_cell_formula_units_Z  2
loop_
  _symmetry_equiv_pos_site_id
 _symmetry_equiv_pos_as_xyz
 1  'x, y, z'
loop_
 _atom_site_type_symbol
 _atom_site_label
 _atom_site_symmetry_multiplicity
 _atom_site_fract_x
 _atom_site_fract_y
 _atom_site_fract_z
 _atom_site_fract_occupancy
 Mo  Mo1  1  0.33332  0.66664  0.09350  1
 Mo  Mo2  1  0.66667  0.33335  0.28241  1
 S  S1  1  0.33335  0.66670  0.70088  1
 S  S2  1  0.66665  0.33330  0.04790  1
 S  S3  1  0.66666  0.33331  0.42608  1
 S  S4  1  0.66666  0.33332  0.13915  1
 S  S5  1  0.66667  0.33334  0.51785  1
 S  S6  1  0.33334  0.66668  0.60916  1
 Se  Se1  1  0.33334  0.66669  0.33257  1
 Se  Se2  1  0.33333  0.66667  0.23225  1
 W  W1  1  0.33333  0.66665  0.47197  1
 W  W2  1  0.66668  0.33336  0.65504  1
