CIF file written using JARVIS-Tools package.
data_Lu2ZnS4
_symmetry_space_group_name_H-M  'Pnma'
_cell_length_a       6.25641
_cell_length_b       7.67838
_cell_length_c       13.2164
_cell_angle_alpha    90
_cell_angle_beta     90
_cell_angle_gamma    90

_symmetry_Int_Tables_number  62
_chemical_formula_structural  Lu2ZnS4
_chemical_formula_sum  Lu8Zn4S6
_cell_volume  634.9034216629104
_cell_formula_units_Z  4
loop_
  _symmetry_equiv_pos_site_id
 _symmetry_equiv_pos_as_xyz
 1  'x, y, z'
loop_
 _atom_site_type_symbol
 _atom_site_label
 _atom_site_symmetry_multiplicity
 _atom_site_fract_x
 _atom_site_fract_y
 _atom_site_fract_z
 _atom_site_fract_occupancy
 Lu  Lu1  1  0.50000  0.50000  0.50000  1
 Lu  Lu2  1  0.00000  0.50000  0.00000  1
 Lu  Lu3  1  0.50000  0.00000  0.50000  1
 Lu  Lu4  1  0.00000  0.00000  0.00000  1
 Lu  Lu5  1  0.00288  0.75000  0.26527  1
 Lu  Lu6  1  0.50288  0.25000  0.23473  1
 Lu  Lu7  1  0.99712  0.25000  0.73473  1
 Lu  Lu8  1  0.49712  0.75000  0.76527  1
 S  S1  1  0.75965  0.50830  0.16888  1
 S  S2  1  0.24035  0.49170  0.83112  1
 S  S3  1  0.74035  0.50830  0.66888  1
 S  S4  1  0.25965  0.49170  0.33112  1
 S  S5  1  0.74035  0.99170  0.66888  1
 S  S6  1  0.77857  0.25000  0.90994  1
 S  S7  1  0.75965  0.99170  0.16888  1
 S  S8  1  0.24035  0.00830  0.83112  1
 S  S9  1  0.74663  0.75000  0.92749  1
 S  S10  1  0.22143  0.75000  0.09006  1
 S  S11  1  0.25337  0.25000  0.07251  1
 S  S12  1  0.75337  0.75000  0.42749  1
 S  S13  1  0.25965  0.00830  0.33112  1
 S  S14  1  0.72143  0.25000  0.40994  1
 S  S15  1  0.24663  0.25000  0.57251  1
 S  S16  1  0.27857  0.75000  0.59006  1
 Zn  Zn1  1  0.58721  0.75000  0.09213  1
 Zn  Zn2  1  0.08721  0.25000  0.40787  1
 Zn  Zn3  1  0.41279  0.25000  0.90787  1
 Zn  Zn4  1  0.91279  0.75000  0.59213  1
