CIF file written using JARVIS-Tools package.
data_K7NbAs4
_symmetry_space_group_name_H-M  'Pmn2_1'
_cell_length_a       8.23404
_cell_length_b       9.16796
_cell_length_c       10.1801
_cell_angle_alpha    90
_cell_angle_beta     90
_cell_angle_gamma    90

_symmetry_Int_Tables_number  31
_chemical_formula_structural  K7NbAs4
_chemical_formula_sum  K4Nb2As8
_cell_volume  768.4925722020644
_cell_formula_units_Z  2
loop_
  _symmetry_equiv_pos_site_id
 _symmetry_equiv_pos_as_xyz
 1  'x, y, z'
loop_
 _atom_site_type_symbol
 _atom_site_label
 _atom_site_symmetry_multiplicity
 _atom_site_fract_x
 _atom_site_fract_y
 _atom_site_fract_z
 _atom_site_fract_occupancy
 As  As1  1  0.07959  0.41112  0.00000  1
 As  As2  1  0.59627  0.18822  0.29331  1
 As  As3  1  0.59627  0.18822  0.70669  1
 As  As4  1  0.09627  0.81178  0.79331  1
 As  As5  1  0.19616  0.31624  0.50000  1
 As  As6  1  0.69616  0.68376  0.00000  1
 As  As7  1  0.57959  0.58888  0.50000  1
 As  As8  1  0.09627  0.81178  0.20669  1
 K  K1  1  0.37560  0.53586  0.20955  1
 K  K2  1  0.20473  0.16699  0.78445  1
 K  K3  1  0.70473  0.83301  0.71555  1
 K  K4  1  0.87560  0.46414  0.70955  1
 K  K5  1  0.37560  0.53586  0.79045  1
 K  K6  1  0.36857  0.96108  0.50000  1
 K  K7  1  0.87560  0.46414  0.29045  1
 K  K8  1  0.15983  0.65893  0.50000  1
 K  K9  1  0.65983  0.34107  0.00000  1
 K  K10  1  0.86857  0.03892  0.00000  1
 K  K11  1  0.39504  0.91095  0.00000  1
 K  K12  1  0.89504  0.08905  0.50000  1
 K  K13  1  0.70473  0.83301  0.28445  1
 K  K14  1  0.20473  0.16699  0.21555  1
 Nb  Nb1  1  0.00022  0.67741  0.00000  1
 Nb  Nb2  1  0.50022  0.32259  0.50000  1
