CIF file written using JARVIS-Tools package.
data_Sr2GeS4
_symmetry_space_group_name_H-M  'P2_1/m'
_cell_length_a       6.74324
_cell_length_b       6.68285
_cell_length_c       8.21843
_cell_angle_alpha    90
_cell_angle_beta     108.106
_cell_angle_gamma    90

_symmetry_Int_Tables_number  11
_chemical_formula_structural  Sr2GeS4
_chemical_formula_sum  Sr4Ge2S8
_cell_volume  352.0169505792156
_cell_formula_units_Z  2
loop_
  _symmetry_equiv_pos_site_id
 _symmetry_equiv_pos_as_xyz
 1  'x, y, z'
loop_
 _atom_site_type_symbol
 _atom_site_label
 _atom_site_symmetry_multiplicity
 _atom_site_fract_x
 _atom_site_fract_y
 _atom_site_fract_z
 _atom_site_fract_occupancy
 Ge  Ge1  1  0.27386  0.75000  0.19935  1
 Ge  Ge2  1  0.72614  0.25000  0.80065  1
 S  S1  1  0.50367  0.50597  0.74038  1
 S  S2  1  0.49633  0.00597  0.25962  1
 S  S3  1  0.49633  0.49403  0.25962  1
 S  S4  1  0.50367  0.99403  0.74038  1
 S  S5  1  0.08200  0.75000  0.37765  1
 S  S6  1  0.91800  0.25000  0.62235  1
 S  S7  1  0.90350  0.25000  0.07956  1
 S  S8  1  0.09650  0.75000  0.92044  1
 Sr  Sr1  1  0.76494  0.75000  0.56657  1
 Sr  Sr2  1  0.23506  0.25000  0.43343  1
 Sr  Sr3  1  0.72368  0.75000  0.05480  1
 Sr  Sr4  1  0.27632  0.25000  0.94520  1
