CIF file written using JARVIS-Tools package.
data_MgSb4O8
_symmetry_space_group_name_H-M  'P1'
_cell_length_a       3.27725
_cell_length_b       7.21811
_cell_length_c       8.8366
_cell_angle_alpha    113.324
_cell_angle_beta     100.688
_cell_angle_gamma    90.1693

_symmetry_Int_Tables_number  1
_chemical_formula_structural  MgSb4O8
_chemical_formula_sum  MgSb4O8
_cell_volume  187.94540296065142
_cell_formula_units_Z  1
loop_
  _symmetry_equiv_pos_site_id
 _symmetry_equiv_pos_as_xyz
 1  'x, y, z'
loop_
 _atom_site_type_symbol
 _atom_site_label
 _atom_site_symmetry_multiplicity
 _atom_site_fract_x
 _atom_site_fract_y
 _atom_site_fract_z
 _atom_site_fract_occupancy
 Mg  Mg1  1  0.71852  0.12857  0.98618  1
 O  O1  1  0.43543  0.73053  0.41962  1
 O  O2  1  0.85543  0.36294  0.24179  1
 O  O3  1  0.02208  0.59439  0.60500  1
 O  O4  1  0.47692  0.26240  0.51129  1
 O  O5  1  0.28726  0.03640  0.12712  1
 O  O6  1  0.20943  0.29311  0.96043  1
 O  O7  1  0.60746  0.88618  0.76975  1
 O  O8  1  0.79852  0.65598  0.13443  1
 Sb  Sb1  1  0.94247  0.09886  0.31174  1
 Sb  Sb2  1  0.57629  0.52214  0.71667  1
 Sb  Sb3  1  0.32188  0.52146  0.18294  1
 Sb  Sb4  1  0.02016  0.88317  0.60239  1
