CIF file written using JARVIS-Tools package.
data_CePt
_symmetry_space_group_name_H-M  'Cmcm'
_cell_length_a       3.8481
_cell_length_b       4.40287
_cell_length_c       5.86805
_cell_angle_alpha    90
_cell_angle_beta     109.141
_cell_angle_gamma    90

_symmetry_Int_Tables_number  63
_chemical_formula_structural  CePt
_chemical_formula_sum  Ce2Pt2
_cell_volume  93.92456510790998
_cell_formula_units_Z  2
loop_
  _symmetry_equiv_pos_site_id
 _symmetry_equiv_pos_as_xyz
 1  'x, y, z'
loop_
 _atom_site_type_symbol
 _atom_site_label
 _atom_site_symmetry_multiplicity
 _atom_site_fract_x
 _atom_site_fract_y
 _atom_site_fract_z
 _atom_site_fract_occupancy
 Ce  Ce1  1  0.86377  0.25000  0.72753  1
 Ce  Ce2  1  0.13623  0.75000  0.27247  1
 Pt  Pt1  1  0.59660  0.25000  0.19320  1
 Pt  Pt2  1  0.40340  0.75000  0.80680  1
