CIF file written using JARVIS-Tools package.
data_YCd3
_symmetry_space_group_name_H-M  'Cmcm'
_cell_length_a       4.94926
_cell_length_b       6.60126
_cell_length_c       6.60125
_cell_angle_alpha    119.875
_cell_angle_beta     90
_cell_angle_gamma    90

_symmetry_Int_Tables_number  63
_chemical_formula_structural  YCd3
_chemical_formula_sum  Y2Cd6
_cell_volume  187.01229869831707
_cell_formula_units_Z  2
loop_
  _symmetry_equiv_pos_site_id
 _symmetry_equiv_pos_as_xyz
 1  'x, y, z'
loop_
 _atom_site_type_symbol
 _atom_site_label
 _atom_site_symmetry_multiplicity
 _atom_site_fract_x
 _atom_site_fract_y
 _atom_site_fract_z
 _atom_site_fract_occupancy
 Cd  Cd1  1  0.75000  0.32451  0.16155  1
 Cd  Cd2  1  0.25000  0.67549  0.83845  1
 Cd  Cd3  1  0.25000  0.16155  0.32451  1
 Cd  Cd4  1  0.75000  0.83845  0.67549  1
 Cd  Cd5  1  0.25000  0.16286  0.83714  1
 Cd  Cd6  1  0.75000  0.83714  0.16286  1
 Y  Y1  1  0.25000  0.66600  0.33400  1
 Y  Y2  1  0.75000  0.33400  0.66600  1
