CIF file written using JARVIS-Tools package.
data_NdTi2CdO6F
_symmetry_space_group_name_H-M  'Imma'
_cell_length_a       7.26531
_cell_length_b       7.56898
_cell_length_c       7.26532
_cell_angle_alpha    58.6075
_cell_angle_beta     58.8667
_cell_angle_gamma    58.6075

_symmetry_Int_Tables_number  74
_chemical_formula_structural  NdTi2CdO6F
_chemical_formula_sum  Nd2Ti4Cd2O2F2
_cell_volume  274.07284724507025
_cell_formula_units_Z  2
loop_
  _symmetry_equiv_pos_site_id
 _symmetry_equiv_pos_as_xyz
 1  'x, y, z'
loop_
 _atom_site_type_symbol
 _atom_site_label
 _atom_site_symmetry_multiplicity
 _atom_site_fract_x
 _atom_site_fract_y
 _atom_site_fract_z
 _atom_site_fract_occupancy
 Cd  Cd1  1  0.50000  0.00000  0.00000  1
 Cd  Cd2  1  0.00000  0.00000  0.50000  1
 F  F1  1  0.87721  0.87279  0.87721  1
 F  F2  1  0.12279  0.12721  0.12279  1
 Nd  Nd1  1  0.00000  0.00000  0.00000  1
 Nd  Nd2  1  -0.00000  0.50000  0.00000  1
 O  O1  1  0.41932  0.43634  0.82437  1
 O  O2  1  0.58068  0.56366  0.17563  1
 O  O3  1  0.16734  0.58266  0.16734  1
 O  O4  1  0.17563  0.18003  0.58068  1
 O  O5  1  0.58068  0.18003  0.17563  1
 O  O6  1  0.59072  0.15928  0.59072  1
 O  O7  1  0.17563  0.56366  0.58068  1
 O  O8  1  0.41932  0.81997  0.82437  1
 O  O9  1  0.40928  0.84072  0.40928  1
 O  O10  1  0.82437  0.43634  0.41932  1
 O  O11  1  0.83266  0.41734  0.83266  1
 O  O12  1  0.82437  0.81997  0.41932  1
 Ti  Ti1  1  -0.00000  0.50000  0.50000  1
 Ti  Ti2  1  0.50000  0.50000  0.00000  1
 Ti  Ti3  1  0.50000  0.00000  0.50000  1
 Ti  Ti4  1  0.50000  0.50000  0.50000  1
