CIF file written using JARVIS-Tools package.
data_Ba3Ti3B2O12
_symmetry_space_group_name_H-M  'P-62m'
_cell_length_a       8.85487
_cell_length_b       8.85487
_cell_length_c       3.84622
_cell_angle_alpha    90
_cell_angle_beta     90
_cell_angle_gamma    120

_symmetry_Int_Tables_number  189
_chemical_formula_structural  Ba3Ti3B2O12
_chemical_formula_sum  Ba3Ti3B2O2
_cell_volume  261.1731432300946
_cell_formula_units_Z  1
loop_
  _symmetry_equiv_pos_site_id
 _symmetry_equiv_pos_as_xyz
 1  'x, y, z'
loop_
 _atom_site_type_symbol
 _atom_site_label
 _atom_site_symmetry_multiplicity
 _atom_site_fract_x
 _atom_site_fract_y
 _atom_site_fract_z
 _atom_site_fract_occupancy
 B  B1  1  0.66667  0.33333  0.00000  1
 B  B2  1  0.33333  0.66667  0.00000  1
 Ba  Ba1  1  0.59597  0.59597  0.50000  1
 Ba  Ba2  1  -0.00000  0.40403  0.50000  1
 Ba  Ba3  1  0.40403  -0.00000  0.50000  1
 O  O1  1  0.49479  0.81479  0.00000  1
 O  O2  1  -0.00000  0.18538  0.00000  1
 O  O3  1  0.68001  0.18521  0.00000  1
 O  O4  1  0.50521  0.31999  0.00000  1
 O  O5  1  0.81479  0.49479  0.00000  1
 O  O6  1  0.18521  0.68001  0.00000  1
 O  O7  1  0.26397  0.26397  0.50000  1
 O  O8  1  0.00000  0.73603  0.50000  1
 O  O9  1  0.31999  0.50521  0.00000  1
 O  O10  1  0.18538  -0.00000  0.00000  1
 O  O11  1  0.73603  -0.00000  0.50000  1
 O  O12  1  0.81462  0.81462  0.00000  1
 Ti  Ti1  1  0.76493  -0.00000  0.00000  1
 Ti  Ti2  1  -0.00000  0.76493  0.00000  1
 Ti  Ti3  1  0.23507  0.23507  0.00000  1
