CIF file written using JARVIS-Tools package.
data_Sr3SiO
_symmetry_space_group_name_H-M  'Pnma'
_cell_length_a       7.1276
_cell_length_b       7.13761
_cell_length_c       10.0926
_cell_angle_alpha    90
_cell_angle_beta     90
_cell_angle_gamma    90

_symmetry_Int_Tables_number  62
_chemical_formula_structural  Sr3SiO
_chemical_formula_sum  Sr2Si4O4
_cell_volume  513.4510264196807
_cell_formula_units_Z  4
loop_
  _symmetry_equiv_pos_site_id
 _symmetry_equiv_pos_as_xyz
 1  'x, y, z'
loop_
 _atom_site_type_symbol
 _atom_site_label
 _atom_site_symmetry_multiplicity
 _atom_site_fract_x
 _atom_site_fract_y
 _atom_site_fract_z
 _atom_site_fract_occupancy
 O  O1  1  0.50000  0.00000  0.00000  1
 O  O2  1  0.50000  0.00000  0.50000  1
 O  O3  1  0.00000  0.50000  0.50000  1
 O  O4  1  0.00000  0.50000  0.00000  1
 Si  Si1  1  0.99496  0.97794  0.25000  1
 Si  Si2  1  0.50504  0.47794  0.25000  1
 Si  Si3  1  0.49496  0.52206  0.75000  1
 Si  Si4  1  0.00504  0.02206  0.75000  1
 Sr  Sr1  1  0.27956  0.27923  0.96924  1
 Sr  Sr2  1  0.27956  0.27923  0.53076  1
 Sr  Sr3  1  0.22044  0.77923  0.96924  1
 Sr  Sr4  1  0.22044  0.77923  0.53076  1
 Sr  Sr5  1  0.55943  0.99172  0.75000  1
 Sr  Sr6  1  0.72044  0.72077  0.46924  1
 Sr  Sr7  1  0.77956  0.22077  0.03076  1
 Sr  Sr8  1  0.94057  0.49172  0.75000  1
 Sr  Sr9  1  0.44057  0.00828  0.25000  1
 Sr  Sr10  1  0.05943  0.50828  0.25000  1
 Sr  Sr11  1  0.77956  0.22077  0.46924  1
 Sr  Sr12  1  0.72044  0.72077  0.03076  1
