CIF file written using JARVIS-Tools package.
data_NaP4N7
_symmetry_space_group_name_H-M  'C2/c'
_cell_length_a       5.17004
_cell_length_b       7.51322
_cell_length_c       7.51323
_cell_angle_alpha    69.425
_cell_angle_beta     79.7342
_cell_angle_gamma    79.7342

_symmetry_Int_Tables_number  15
_chemical_formula_structural  NaP4N7
_chemical_formula_sum  Na2P8N4
_cell_volume  266.72716951032317
_cell_formula_units_Z  2
loop_
  _symmetry_equiv_pos_site_id
 _symmetry_equiv_pos_as_xyz
 1  'x, y, z'
loop_
 _atom_site_type_symbol
 _atom_site_label
 _atom_site_symmetry_multiplicity
 _atom_site_fract_x
 _atom_site_fract_y
 _atom_site_fract_z
 _atom_site_fract_occupancy
 N  N1  1  0.89336  0.63682  0.73353  1
 N  N2  1  0.75000  0.51925  0.48075  1
 N  N3  1  0.10664  0.36318  0.26647  1
 N  N4  1  0.92722  0.17996  0.07913  1
 N  N5  1  0.57278  0.92087  0.82004  1
 N  N6  1  0.07278  0.82004  0.92087  1
 N  N7  1  0.25000  0.48075  0.51925  1
 N  N8  1  0.68672  0.60982  0.10740  1
 N  N9  1  0.81328  0.89260  0.39018  1
 N  N10  1  0.31328  0.39018  0.89260  1
 N  N11  1  0.18672  0.10740  0.60982  1
 N  N12  1  0.39336  0.73353  0.63682  1
 N  N13  1  0.60664  0.26647  0.36318  1
 N  N14  1  0.42722  0.07913  0.17996  1
 Na  Na1  1  0.25000  0.78878  0.21122  1
 Na  Na2  1  0.75000  0.21122  0.78878  1
 P  P1  1  0.28530  0.29656  0.45831  1
 P  P2  1  0.21470  0.54169  0.70344  1
 P  P3  1  0.71470  0.70344  0.54169  1
 P  P4  1  0.78530  0.45831  0.29656  1
 P  P5  1  0.30249  0.90592  0.75191  1
 P  P6  1  0.19751  0.24809  0.09408  1
 P  P7  1  0.69751  0.09408  0.24809  1
 P  P8  1  0.80249  0.75191  0.90592  1
