CIF file written using JARVIS-Tools package.
data_CoN3
_symmetry_space_group_name_H-M  'Im-3'
_cell_length_a       5.41808
_cell_length_b       5.41808
_cell_length_c       5.41808
_cell_angle_alpha    109.471
_cell_angle_beta     109.471
_cell_angle_gamma    109.471

_symmetry_Int_Tables_number  204
_chemical_formula_structural  CoN3
_chemical_formula_sum  Co4N2
_cell_volume  122.43726669388856
_cell_formula_units_Z  4
loop_
  _symmetry_equiv_pos_site_id
 _symmetry_equiv_pos_as_xyz
 1  'x, y, z'
loop_
 _atom_site_type_symbol
 _atom_site_label
 _atom_site_symmetry_multiplicity
 _atom_site_fract_x
 _atom_site_fract_y
 _atom_site_fract_z
 _atom_site_fract_occupancy
 Co  Co1  1  0.50000  0.00000  -0.00000  1
 Co  Co2  1  0.00000  0.00000  0.50000  1
 Co  Co3  1  0.00000  0.50000  -0.00000  1
 Co  Co4  1  0.50000  0.50000  0.50000  1
 N  N1  1  0.50977  0.88416  0.62561  1
 N  N2  1  0.25855  0.88416  0.37439  1
 N  N3  1  0.74145  0.11584  0.62561  1
 N  N4  1  0.11584  0.37439  0.49023  1
 N  N5  1  0.49023  0.11584  0.37439  1
 N  N6  1  0.11584  0.62561  0.74145  1
 N  N7  1  0.37439  0.25855  0.88416  1
 N  N8  1  0.88416  0.62561  0.50977  1
 N  N9  1  0.62561  0.74145  0.11584  1
 N  N10  1  0.88416  0.37439  0.25855  1
 N  N11  1  0.62561  0.50977  0.88416  1
 N  N12  1  0.37439  0.49023  0.11584  1
