CIF file written using JARVIS-Tools package.
data_LiHS
_symmetry_space_group_name_H-M  'P4_2/mbc'
_cell_length_a       7.8035
_cell_length_b       7.8035
_cell_length_c       6.08233
_cell_angle_alpha    90
_cell_angle_beta     90
_cell_angle_gamma    90

_symmetry_Int_Tables_number  135
_chemical_formula_structural  LiHS
_chemical_formula_sum  Li8H8S8
_cell_volume  370.3809153149912
_cell_formula_units_Z  8
loop_
  _symmetry_equiv_pos_site_id
 _symmetry_equiv_pos_as_xyz
 1  'x, y, z'
loop_
 _atom_site_type_symbol
 _atom_site_label
 _atom_site_symmetry_multiplicity
 _atom_site_fract_x
 _atom_site_fract_y
 _atom_site_fract_z
 _atom_site_fract_occupancy
 H  H1  1  0.25140  0.80888  0.00000  1
 H  H2  1  0.24860  0.30888  0.00000  1
 H  H3  1  0.30888  0.75140  0.50000  1
 H  H4  1  0.69112  0.24860  0.50000  1
 H  H5  1  0.75140  0.69112  0.00000  1
 H  H6  1  0.74860  0.19112  0.00000  1
 H  H7  1  0.80888  0.74860  0.50000  1
 H  H8  1  0.19112  0.25140  0.50000  1
 Li  Li1  1  0.50000  0.00000  0.25000  1
 Li  Li2  1  0.50000  0.50000  0.75000  1
 Li  Li3  1  0.00000  0.00000  0.75000  1
 Li  Li4  1  0.00000  0.00000  0.25000  1
 Li  Li5  1  0.00000  0.50000  0.25000  1
 Li  Li6  1  0.50000  0.00000  0.75000  1
 Li  Li7  1  0.00000  0.50000  0.75000  1
 Li  Li8  1  0.50000  0.50000  0.25000  1
 S  S1  1  0.75027  0.01800  0.00000  1
 S  S2  1  0.51800  0.25027  0.50000  1
 S  S3  1  0.25027  0.48200  0.00000  1
 S  S4  1  0.74973  0.51800  0.00000  1
 S  S5  1  0.48200  0.74973  0.50000  1
 S  S6  1  0.98200  0.75027  0.50000  1
 S  S7  1  0.01800  0.24973  0.50000  1
 S  S8  1  0.24973  0.98200  0.00000  1
