CIF file written using JARVIS-Tools package.
data_V2O5
_symmetry_space_group_name_H-M  'Pmmn'
_cell_length_a       3.56398
_cell_length_b       4.28719
_cell_length_c       11.7386
_cell_angle_alpha    90
_cell_angle_beta     90
_cell_angle_gamma    90

_symmetry_Int_Tables_number  59
_chemical_formula_structural  V2O5
_chemical_formula_sum  V4O0
_cell_volume  179.35839123433792
_cell_formula_units_Z  2
loop_
  _symmetry_equiv_pos_site_id
 _symmetry_equiv_pos_as_xyz
 1  'x, y, z'
loop_
 _atom_site_type_symbol
 _atom_site_label
 _atom_site_symmetry_multiplicity
 _atom_site_fract_x
 _atom_site_fract_y
 _atom_site_fract_z
 _atom_site_fract_occupancy
 O  O1  1  0.50000  0.00402  0.18181  1
 O  O2  1  0.00000  -0.00402  0.31819  1
 O  O3  1  0.00000  -0.00402  0.68181  1
 O  O4  1  0.50000  0.00402  0.81819  1
 O  O5  1  0.00000  0.48633  0.85388  1
 O  O6  1  0.50000  0.51367  0.64612  1
 O  O7  1  0.50000  0.51367  0.35388  1
 O  O8  1  0.50000  -0.00748  0.50000  1
 O  O9  1  0.00000  0.00748  0.00000  1
 O  O10  1  0.00000  0.48633  0.14612  1
 V  V1  1  0.00000  0.11061  0.14782  1
 V  V2  1  0.50000  0.88939  0.35218  1
 V  V3  1  0.50000  0.88939  0.64782  1
 V  V4  1  0.00000  0.11061  0.85218  1
