CIF file written using JARVIS-Tools package.
data_K2CuBr3
_symmetry_space_group_name_H-M  'Pnma'
_cell_length_a       4.30046
_cell_length_b       12.5189
_cell_length_c       13.17
_cell_angle_alpha    90
_cell_angle_beta     90
_cell_angle_gamma    90

_symmetry_Int_Tables_number  62
_chemical_formula_structural  K2CuBr3
_chemical_formula_sum  K8Cu4Br2
_cell_volume  709.0335509280467
_cell_formula_units_Z  4
loop_
  _symmetry_equiv_pos_site_id
 _symmetry_equiv_pos_as_xyz
 1  'x, y, z'
loop_
 _atom_site_type_symbol
 _atom_site_label
 _atom_site_symmetry_multiplicity
 _atom_site_fract_x
 _atom_site_fract_y
 _atom_site_fract_z
 _atom_site_fract_occupancy
 Br  Br1  1  0.75000  0.55688  0.13727  1
 Br  Br2  1  0.75000  0.05688  0.36273  1
 Br  Br3  1  0.25000  0.12961  0.94752  1
 Br  Br4  1  0.25000  0.62961  0.55248  1
 Br  Br5  1  0.25000  0.27768  0.20645  1
 Br  Br6  1  0.25000  0.77768  0.29355  1
 Br  Br7  1  0.25000  0.94312  0.63727  1
 Br  Br8  1  0.25000  0.44312  0.86273  1
 Br  Br9  1  0.75000  0.22232  0.70645  1
 Br  Br10  1  0.75000  0.72232  0.79355  1
 Br  Br11  1  0.75000  0.37039  0.44752  1
 Br  Br12  1  0.75000  0.87039  0.05248  1
 Cu  Cu1  1  0.75000  0.24472  0.30246  1
 Cu  Cu2  1  0.25000  0.75528  0.69754  1
 Cu  Cu3  1  0.25000  0.25528  0.80246  1
 Cu  Cu4  1  0.75000  0.74472  0.19754  1
 K  K1  1  0.25000  0.01372  0.17802  1
 K  K2  1  0.75000  0.32232  0.01476  1
 K  K3  1  0.25000  0.67768  0.98524  1
 K  K4  1  0.75000  0.98628  0.82198  1
 K  K5  1  0.75000  0.48628  0.67802  1
 K  K6  1  0.75000  0.82232  0.48524  1
 K  K7  1  0.25000  0.51372  0.32198  1
 K  K8  1  0.25000  0.17768  0.51476  1
