CIF file written using JARVIS-Tools package.
data_TlPS3
_symmetry_space_group_name_H-M  'Immm'
_cell_length_a       6.91808
_cell_length_b       6.94638
_cell_length_c       6.94638
_cell_angle_alpha    69.3946
_cell_angle_beta     60.1347
_cell_angle_gamma    60.1347

_symmetry_Int_Tables_number  71
_chemical_formula_structural  TlPS3
_chemical_formula_sum  Tl2P2S6
_cell_volume  248.62817961177836
_cell_formula_units_Z  2
loop_
  _symmetry_equiv_pos_site_id
 _symmetry_equiv_pos_as_xyz
 1  'x, y, z'
loop_
 _atom_site_type_symbol
 _atom_site_label
 _atom_site_symmetry_multiplicity
 _atom_site_fract_x
 _atom_site_fract_y
 _atom_site_fract_z
 _atom_site_fract_occupancy
 P  P1  1  0.66389  0.33611  0.33611  1
 P  P2  1  0.33611  0.66389  0.66389  1
 S  S1  1  0.53416  0.22114  0.22114  1
 S  S2  1  0.97644  0.77886  0.77886  1
 S  S3  1  0.50000  0.30133  0.69867  1
 S  S4  1  0.50000  0.69867  0.30133  1
 S  S5  1  0.46584  0.77886  0.77886  1
 S  S6  1  0.02356  0.22114  0.22114  1
 Tl  Tl1  1  -0.00000  0.26346  0.73654  1
 Tl  Tl2  1  0.00000  0.73654  0.26346  1
