CIF file written using JARVIS-Tools package.
data_TlCdCl3
_symmetry_space_group_name_H-M  'Pnma'
_cell_length_a       4.00001
_cell_length_b       8.91718
_cell_length_c       14.8529
_cell_angle_alpha    90
_cell_angle_beta     90
_cell_angle_gamma    90

_symmetry_Int_Tables_number  62
_chemical_formula_structural  TlCdCl3
_chemical_formula_sum  Tl4Cd4Cl2
_cell_volume  529.7860820028578
_cell_formula_units_Z  4
loop_
  _symmetry_equiv_pos_site_id
 _symmetry_equiv_pos_as_xyz
 1  'x, y, z'
loop_
 _atom_site_type_symbol
 _atom_site_label
 _atom_site_symmetry_multiplicity
 _atom_site_fract_x
 _atom_site_fract_y
 _atom_site_fract_z
 _atom_site_fract_occupancy
 Cd  Cd1  1  0.25000  0.66854  0.55711  1
 Cd  Cd2  1  0.75000  0.33146  0.44289  1
 Cd  Cd3  1  0.25000  0.16854  0.94289  1
 Cd  Cd4  1  0.75000  0.83146  0.05711  1
 Cl  Cl1  1  0.75000  0.70899  0.21275  1
 Cl  Cl2  1  0.25000  0.52502  0.39711  1
 Cl  Cl3  1  0.75000  0.20899  0.28725  1
 Cl  Cl4  1  0.25000  0.02502  0.10289  1
 Cl  Cl5  1  0.75000  0.97498  0.89711  1
 Cl  Cl6  1  0.75000  0.47498  0.60289  1
 Cl  Cl7  1  0.75000  0.33476  0.00509  1
 Cl  Cl8  1  0.25000  0.79101  0.71275  1
 Cl  Cl9  1  0.75000  0.83476  0.49491  1
 Cl  Cl10  1  0.25000  0.66524  0.99491  1
 Cl  Cl11  1  0.25000  0.29101  0.78725  1
 Cl  Cl12  1  0.25000  0.16524  0.50509  1
 Tl  Tl1  1  0.75000  0.57060  0.82382  1
 Tl  Tl2  1  0.25000  0.42940  0.17618  1
 Tl  Tl3  1  0.75000  0.07060  0.67618  1
 Tl  Tl4  1  0.25000  0.92940  0.32382  1
