CIF file written using JARVIS-Tools package.
data_CrBiO3
_symmetry_space_group_name_H-M  'R3c'
_cell_length_a       5.52306
_cell_length_b       5.52308
_cell_length_c       5.52311
_cell_angle_alpha    60.4935
_cell_angle_beta     60.4934
_cell_angle_gamma    60.4936

_symmetry_Int_Tables_number  161
_chemical_formula_structural  CrBiO3
_chemical_formula_sum  Cr2Bi2O6
_cell_volume  120.46109553517651
_cell_formula_units_Z  2
loop_
  _symmetry_equiv_pos_site_id
 _symmetry_equiv_pos_as_xyz
 1  'x, y, z'
loop_
 _atom_site_type_symbol
 _atom_site_label
 _atom_site_symmetry_multiplicity
 _atom_site_fract_x
 _atom_site_fract_y
 _atom_site_fract_z
 _atom_site_fract_occupancy
 Bi  Bi1  1  0.50031  0.50031  0.50031  1
 Bi  Bi2  1  0.00031  0.00031  0.00031  1
 Cr  Cr1  1  0.22966  0.22966  0.22966  1
 Cr  Cr2  1  0.72966  0.72966  0.72966  1
 O  O1  1  0.40488  0.54734  0.95081  1
 O  O2  1  0.04734  0.90488  0.45082  1
 O  O3  1  0.90488  0.45081  0.04733  1
 O  O4  1  0.45082  0.04733  0.90489  1
 O  O5  1  0.95081  0.40488  0.54733  1
 O  O6  1  0.54733  0.95082  0.40488  1
