CIF file written using JARVIS-Tools package.
data_Pb7Br2F12
_symmetry_space_group_name_H-M  'P-6'
_cell_length_a       10.3745
_cell_length_b       10.3745
_cell_length_c       4.01233
_cell_angle_alpha    90
_cell_angle_beta     90
_cell_angle_gamma    120

_symmetry_Int_Tables_number  174
_chemical_formula_structural  Pb7Br2F12
_chemical_formula_sum  Pb7Br2F2
_cell_volume  373.98853128904733
_cell_formula_units_Z  1
loop_
  _symmetry_equiv_pos_site_id
 _symmetry_equiv_pos_as_xyz
 1  'x, y, z'
loop_
 _atom_site_type_symbol
 _atom_site_label
 _atom_site_symmetry_multiplicity
 _atom_site_fract_x
 _atom_site_fract_y
 _atom_site_fract_z
 _atom_site_fract_occupancy
 Br  Br1  1  0.33333  0.66667  0.00000  1
 Br  Br2  1  0.66667  0.33333  0.50000  1
 F  F1  1  0.94642  0.56760  0.00000  1
 F  F2  1  0.38611  0.95798  0.50000  1
 F  F3  1  0.11700  0.27540  0.00000  1
 F  F4  1  0.57187  0.61389  0.50000  1
 F  F5  1  0.91521  0.79071  0.50000  1
 F  F6  1  0.04202  0.42813  0.50000  1
 F  F7  1  0.87550  0.08479  0.50000  1
 F  F8  1  0.62117  0.05358  0.00000  1
 F  F9  1  0.43240  0.37883  0.00000  1
 F  F10  1  0.72460  0.84160  0.00000  1
 F  F11  1  0.15840  0.88300  0.00000  1
 F  F12  1  0.20929  0.12450  0.50000  1
 Pb  Pb1  1  0.00000  0.00000  0.00000  1
 Pb  Pb2  1  0.40880  0.10319  0.00000  1
 Pb  Pb3  1  0.69439  0.59120  0.00000  1
 Pb  Pb4  1  0.10697  0.71144  0.50000  1
 Pb  Pb5  1  0.28856  0.39553  0.50000  1
 Pb  Pb6  1  0.60447  0.89303  0.50000  1
 Pb  Pb7  1  0.89681  0.30561  0.00000  1
