CIF file written using JARVIS-Tools package.
data_LiSbTe2WO12
_symmetry_space_group_name_H-M  'P1'
_cell_length_a       5.08471
_cell_length_b       5.33227
_cell_length_c       7.37138
_cell_angle_alpha    94.078
_cell_angle_beta     90.1541
_cell_angle_gamma    90.0086

_symmetry_Int_Tables_number  1
_chemical_formula_structural  LiSbTe2WO12
_chemical_formula_sum  LiSbTe2WO2
_cell_volume  199.35371680089042
_cell_formula_units_Z  1
loop_
  _symmetry_equiv_pos_site_id
 _symmetry_equiv_pos_as_xyz
 1  'x, y, z'
loop_
 _atom_site_type_symbol
 _atom_site_label
 _atom_site_symmetry_multiplicity
 _atom_site_fract_x
 _atom_site_fract_y
 _atom_site_fract_z
 _atom_site_fract_occupancy
 Li  Li1  1  0.99872  0.57838  0.71529  1
 O  O1  1  0.31680  0.17330  0.43137  1
 O  O2  1  0.11202  -0.00988  0.75242  1
 O  O3  1  0.30309  0.81158  0.05775  1
 O  O4  1  0.87538  0.00583  0.24663  1
 O  O5  1  0.16612  0.67926  0.44387  1
 O  O6  1  0.36441  0.49693  0.75307  1
 O  O7  1  0.81219  0.69033  0.93386  1
 O  O8  1  0.63745  0.50574  0.24129  1
 O  O9  1  0.82123  0.31471  0.56952  1
 O  O10  1  0.69457  0.19348  0.94004  1
 O  O11  1  0.19333  0.31095  0.05845  1
 O  O12  1  0.69934  0.81120  0.57270  1
 Sb  Sb1  1  0.49930  0.50007  0.49133  1
 Te  Te1  1  0.00045  0.00370  0.49648  1
 Te  Te2  1  0.50390  0.50709  -0.00094  1
 W  W1  1  0.00171  0.01293  0.00406  1
