CIF file written using JARVIS-Tools package.
data_Ba4NaCuC2O10
_symmetry_space_group_name_H-M  'I-42m'
_cell_length_a       5.86699
_cell_length_b       5.86699
_cell_length_c       8.80439
_cell_angle_alpha    109.462
_cell_angle_beta     109.462
_cell_angle_gamma    90

_symmetry_Int_Tables_number  121
_chemical_formula_structural  Ba4NaCuC2O10
_chemical_formula_sum  Ba4NaCuC2O0
_cell_volume  267.3086078708264
_cell_formula_units_Z  1
loop_
  _symmetry_equiv_pos_site_id
 _symmetry_equiv_pos_as_xyz
 1  'x, y, z'
loop_
 _atom_site_type_symbol
 _atom_site_label
 _atom_site_symmetry_multiplicity
 _atom_site_fract_x
 _atom_site_fract_y
 _atom_site_fract_z
 _atom_site_fract_occupancy
 Ba  Ba1  1  0.61776  0.11776  0.23552  1
 Ba  Ba2  1  0.38224  0.88224  0.76448  1
 Ba  Ba3  1  0.11776  0.61776  0.23552  1
 Ba  Ba4  1  0.88224  0.38224  0.76448  1
 C  C1  1  0.23264  0.23264  0.46529  1
 C  C2  1  0.76736  0.76736  0.53471  1
 Cu  Cu1  1  0.50000  0.50000  0.00000  1
 Na  Na1  1  0.00000  0.00000  0.00000  1
 O  O1  1  0.59039  0.86412  0.45451  1
 O  O2  1  0.13588  0.13588  0.54549  1
 O  O3  1  0.85161  0.85161  0.70322  1
 O  O4  1  0.27292  0.72173  0.99465  1
 O  O5  1  0.86412  0.59039  0.45451  1
 O  O6  1  0.27827  0.27827  0.00535  1
 O  O7  1  0.14839  0.14839  0.29678  1
 O  O8  1  0.40961  0.40961  0.54549  1
 O  O9  1  0.72708  0.72708  0.00535  1
 O  O10  1  0.72173  0.27292  0.99465  1
