CIF file written using JARVIS-Tools package.
data_SrPSe3
_symmetry_space_group_name_H-M  'P2_1/c'
_cell_length_a       7.03902
_cell_length_b       7.81973
_cell_length_c       11.9125
_cell_angle_alpha    90
_cell_angle_beta     124.443
_cell_angle_gamma    90

_symmetry_Int_Tables_number  14
_chemical_formula_structural  SrPSe3
_chemical_formula_sum  Sr4P4Se2
_cell_volume  540.7471290277264
_cell_formula_units_Z  4
loop_
  _symmetry_equiv_pos_site_id
 _symmetry_equiv_pos_as_xyz
 1  'x, y, z'
loop_
 _atom_site_type_symbol
 _atom_site_label
 _atom_site_symmetry_multiplicity
 _atom_site_fract_x
 _atom_site_fract_y
 _atom_site_fract_z
 _atom_site_fract_occupancy
 P  P1  1  0.37641  0.89288  0.43588  1
 P  P2  1  0.62359  0.39288  0.06412  1
 P  P3  1  0.62359  0.10712  0.56412  1
 P  P4  1  0.37641  0.60712  0.93588  1
 Se  Se1  1  0.60993  0.80512  0.94569  1
 Se  Se2  1  0.12872  0.49733  0.73219  1
 Se  Se3  1  0.39007  0.19488  0.05431  1
 Se  Se4  1  0.87128  0.50267  0.26781  1
 Se  Se5  1  0.12872  0.00267  0.23219  1
 Se  Se6  1  0.87128  0.99733  0.76781  1
 Se  Se7  1  0.77995  0.20235  0.45766  1
 Se  Se8  1  0.60993  0.69488  0.44569  1
 Se  Se9  1  0.22005  0.79765  0.54234  1
 Se  Se10  1  0.22005  0.70235  0.04234  1
 Se  Se11  1  0.39007  0.30512  0.55431  1
 Se  Se12  1  0.77995  0.29765  0.95766  1
 Sr  Sr1  1  0.71431  0.60824  0.75161  1
 Sr  Sr2  1  0.28569  0.10824  0.74839  1
 Sr  Sr3  1  0.28569  0.39176  0.24839  1
 Sr  Sr4  1  0.71431  0.89176  0.25161  1
