CIF file written using JARVIS-Tools package.
data_NbBi3O7
_symmetry_space_group_name_H-M  'P1'
_cell_length_a       3.81221
_cell_length_b       3.87185
_cell_length_c       12.8449
_cell_angle_alpha    81.8503
_cell_angle_beta     81.6896
_cell_angle_gamma    62.1965

_symmetry_Int_Tables_number  1
_chemical_formula_structural  NbBi3O7
_chemical_formula_sum  NbBi3O7
_cell_volume  165.3460449132562
_cell_formula_units_Z  1
loop_
  _symmetry_equiv_pos_site_id
 _symmetry_equiv_pos_as_xyz
 1  'x, y, z'
loop_
 _atom_site_type_symbol
 _atom_site_label
 _atom_site_symmetry_multiplicity
 _atom_site_fract_x
 _atom_site_fract_y
 _atom_site_fract_z
 _atom_site_fract_occupancy
 Bi  Bi1  1  0.95724  0.06532  -0.00036  1
 Bi  Bi2  1  0.21792  0.28858  0.27354  1
 Bi  Bi3  1  0.71567  0.81129  0.73741  1
 Nb  Nb1  1  0.54056  0.45998  0.50504  1
 O  O1  1  0.51348  0.62881  0.34976  1
 O  O2  1  0.89464  0.00927  0.18894  1
 O  O3  1  0.77271  0.87865  0.54282  1
 O  O4  1  0.13763  0.25504  0.46450  1
 O  O5  1  0.01854  0.12692  0.81448  1
 O  O6  1  0.40242  0.49790  0.65906  1
 O  O7  1  0.62568  0.72674  0.98731  1
