CIF file written using JARVIS-Tools package.
data_Na3BO3
_symmetry_space_group_name_H-M  'P2_1/c'
_cell_length_a       5.69264
_cell_length_b       7.45809
_cell_length_c       9.61528
_cell_angle_alpha    90
_cell_angle_beta     123.559
_cell_angle_gamma    90

_symmetry_Int_Tables_number  14
_chemical_formula_structural  Na3BO3
_chemical_formula_sum  Na2B4O2
_cell_volume  340.185462379766
_cell_formula_units_Z  4
loop_
  _symmetry_equiv_pos_site_id
 _symmetry_equiv_pos_as_xyz
 1  'x, y, z'
loop_
 _atom_site_type_symbol
 _atom_site_label
 _atom_site_symmetry_multiplicity
 _atom_site_fract_x
 _atom_site_fract_y
 _atom_site_fract_z
 _atom_site_fract_occupancy
 B  B1  1  0.27985  0.83994  0.84633  1
 B  B2  1  0.72015  0.16006  0.15367  1
 B  B3  1  0.27985  0.66006  0.34633  1
 B  B4  1  0.72015  0.33994  0.65367  1
 Na  Na1  1  0.95418  0.65054  0.57032  1
 Na  Na2  1  0.04582  0.15054  0.92968  1
 Na  Na3  1  0.04582  0.34946  0.42968  1
 Na  Na4  1  0.95418  0.84946  0.07032  1
 Na  Na5  1  0.40027  0.22015  0.77634  1
 Na  Na6  1  0.20813  0.52605  0.95483  1
 Na  Na7  1  0.20813  0.97395  0.45483  1
 Na  Na8  1  0.79187  0.47395  0.04517  1
 Na  Na9  1  0.40027  0.27985  0.27634  1
 Na  Na10  1  0.59973  0.77985  0.22366  1
 Na  Na11  1  0.59973  0.72015  0.72366  1
 Na  Na12  1  0.79187  0.02605  0.54517  1
 O  O1  1  0.25264  0.58271  0.20606  1
 O  O2  1  0.74736  0.08271  0.29394  1
 O  O3  1  0.48527  0.23359  0.54702  1
 O  O4  1  0.51473  0.73359  0.95298  1
 O  O5  1  0.51473  0.76641  0.45298  1
 O  O6  1  0.05898  0.85324  0.86997  1
 O  O7  1  0.94102  0.35324  0.63003  1
 O  O8  1  0.05898  0.64676  0.36997  1
 O  O9  1  0.94102  0.14676  0.13003  1
 O  O10  1  0.25264  0.91729  0.70606  1
 O  O11  1  0.48527  0.26641  0.04702  1
 O  O12  1  0.74736  0.41729  0.79394  1
