CIF file written using JARVIS-Tools package.
data_LiYO2
_symmetry_space_group_name_H-M  'P2_1/c'
_cell_length_a       6.20832
_cell_length_b       6.11521
_cell_length_c       6.32117
_cell_angle_alpha    90
_cell_angle_beta     119.445
_cell_angle_gamma    90

_symmetry_Int_Tables_number  14
_chemical_formula_structural  LiYO2
_chemical_formula_sum  Li4Y4O8
_cell_volume  208.985761705558
_cell_formula_units_Z  4
loop_
  _symmetry_equiv_pos_site_id
 _symmetry_equiv_pos_as_xyz
 1  'x, y, z'
loop_
 _atom_site_type_symbol
 _atom_site_label
 _atom_site_symmetry_multiplicity
 _atom_site_fract_x
 _atom_site_fract_y
 _atom_site_fract_z
 _atom_site_fract_occupancy
 Li  Li1  1  0.29819  0.34014  0.07525  1
 Li  Li2  1  0.70181  0.84014  0.42475  1
 Li  Li3  1  0.70181  0.65986  0.92475  1
 Li  Li4  1  0.29819  0.15986  0.57525  1
 O  O1  1  0.45139  0.60557  0.26141  1
 O  O2  1  0.98200  0.82128  0.14454  1
 O  O3  1  0.54861  0.10557  0.23859  1
 O  O4  1  0.54861  0.39443  0.73859  1
 O  O5  1  0.01800  0.17872  0.85546  1
 O  O6  1  0.01800  0.32128  0.35546  1
 O  O7  1  0.98200  0.67872  0.64454  1
 O  O8  1  0.45139  0.89443  0.76141  1
 Y  Y1  1  0.23045  0.86761  0.97399  1
 Y  Y2  1  0.23045  0.63239  0.47399  1
 Y  Y3  1  0.76955  0.13239  0.02601  1
 Y  Y4  1  0.76955  0.36761  0.52601  1
