CIF file written using JARVIS-Tools package.
data_NdTaO4
_symmetry_space_group_name_H-M  'P2_1/c'
_cell_length_a       7.64226
_cell_length_b       5.51521
_cell_length_c       7.75716
_cell_angle_alpha    90
_cell_angle_beta     99.7773
_cell_angle_gamma    90

_symmetry_Int_Tables_number  14
_chemical_formula_structural  NdTaO4
_chemical_formula_sum  Nd4Ta4O6
_cell_volume  322.20521754144283
_cell_formula_units_Z  4
loop_
  _symmetry_equiv_pos_site_id
 _symmetry_equiv_pos_as_xyz
 1  'x, y, z'
loop_
 _atom_site_type_symbol
 _atom_site_label
 _atom_site_symmetry_multiplicity
 _atom_site_fract_x
 _atom_site_fract_y
 _atom_site_fract_z
 _atom_site_fract_occupancy
 Nd  Nd1  1  0.34821  0.22340  0.10135  1
 Nd  Nd2  1  0.65179  0.72340  0.39865  1
 Nd  Nd3  1  0.65179  0.77660  0.89865  1
 Nd  Nd4  1  0.34821  0.27660  0.60135  1
 O  O1  1  0.33156  0.50895  0.87109  1
 O  O2  1  0.66844  0.00895  0.62891  1
 O  O3  1  0.66844  0.49105  0.12891  1
 O  O4  1  0.93983  0.59299  0.80056  1
 O  O5  1  0.38424  0.98662  0.83054  1
 O  O6  1  0.61576  0.48662  0.66946  1
 O  O7  1  0.33156  0.99105  0.37109  1
 O  O8  1  0.38424  0.51338  0.33054  1
 O  O9  1  0.16620  0.85214  0.05682  1
 O  O10  1  0.83380  0.14786  0.94318  1
 O  O11  1  0.61576  0.01338  0.16946  1
 O  O12  1  0.16620  0.64786  0.55682  1
 O  O13  1  0.06017  0.40701  0.19944  1
 O  O14  1  0.93983  0.90701  0.30056  1
 O  O15  1  0.83380  0.35214  0.44318  1
 O  O16  1  0.06017  0.09299  0.69944  1
 Ta  Ta1  1  0.16542  0.76914  0.80612  1
 Ta  Ta2  1  0.83458  0.26914  0.69388  1
 Ta  Ta3  1  0.83458  0.23086  0.19388  1
 Ta  Ta4  1  0.16542  0.73086  0.30612  1
