CIF file written using JARVIS-Tools package.
data_TlPbI3
_symmetry_space_group_name_H-M  'Cmcm'
_cell_length_a       4.63879
_cell_length_b       7.85587
_cell_length_c       11.8955
_cell_angle_alpha    90
_cell_angle_beta     90
_cell_angle_gamma    107.172

_symmetry_Int_Tables_number  63
_chemical_formula_structural  TlPbI3
_chemical_formula_sum  Tl2Pb2I6
_cell_volume  414.16726152587063
_cell_formula_units_Z  2
loop_
  _symmetry_equiv_pos_site_id
 _symmetry_equiv_pos_as_xyz
 1  'x, y, z'
loop_
 _atom_site_type_symbol
 _atom_site_label
 _atom_site_symmetry_multiplicity
 _atom_site_fract_x
 _atom_site_fract_y
 _atom_site_fract_z
 _atom_site_fract_occupancy
 I  I1  1  0.07992  0.15983  0.25000  1
 I  I2  1  0.92008  0.84017  0.75000  1
 I  I3  1  0.64437  0.28874  0.55790  1
 I  I4  1  0.35563  0.71126  0.44210  1
 I  I5  1  0.64437  0.28874  0.94210  1
 I  I6  1  0.35563  0.71126  0.05790  1
 Pb  Pb1  1  0.00000  0.00000  0.00000  1
 Pb  Pb2  1  0.00000  0.00000  0.50000  1
 Tl  Tl1  1  0.24773  0.49546  0.75000  1
 Tl  Tl2  1  0.75227  0.50454  0.25000  1
