CIF file written using JARVIS-Tools package.
data_Ni3B2O6
_symmetry_space_group_name_H-M  'Pnnm'
_cell_length_a       4.46259
_cell_length_b       5.44654
_cell_length_c       8.31952
_cell_angle_alpha    90
_cell_angle_beta     90
_cell_angle_gamma    90

_symmetry_Int_Tables_number  58
_chemical_formula_structural  Ni3B2O6
_chemical_formula_sum  Ni6B4O2
_cell_volume  202.21143411964437
_cell_formula_units_Z  2
loop_
  _symmetry_equiv_pos_site_id
 _symmetry_equiv_pos_as_xyz
 1  'x, y, z'
loop_
 _atom_site_type_symbol
 _atom_site_label
 _atom_site_symmetry_multiplicity
 _atom_site_fract_x
 _atom_site_fract_y
 _atom_site_fract_z
 _atom_site_fract_occupancy
 B  B1  1  0.04056  0.24569  0.50000  1
 B  B2  1  0.45944  0.74569  0.00000  1
 B  B3  1  0.95944  0.75431  0.50000  1
 B  B4  1  0.54056  0.25431  0.00000  1
 Ni  Ni1  1  0.00000  0.50000  0.81525  1
 Ni  Ni2  1  0.50000  0.00000  0.68475  1
 Ni  Ni3  1  0.00000  0.50000  0.18475  1
 Ni  Ni4  1  0.50000  0.00000  0.31525  1
 Ni  Ni5  1  0.50000  0.50000  0.50000  1
 Ni  Ni6  1  0.00000  0.00000  0.00000  1
 O  O1  1  0.70060  0.20191  0.14076  1
 O  O2  1  0.79940  0.70191  0.35924  1
 O  O3  1  0.29940  0.79809  0.85924  1
 O  O4  1  0.70060  0.20191  0.85924  1
 O  O5  1  0.29940  0.79809  0.14076  1
 O  O6  1  0.75601  0.67509  0.00000  1
 O  O7  1  0.24399  0.32491  0.00000  1
 O  O8  1  0.74399  0.17509  0.50000  1
 O  O9  1  0.25601  0.82491  0.50000  1
 O  O10  1  0.79940  0.70191  0.64076  1
 O  O11  1  0.20060  0.29809  0.64076  1
 O  O12  1  0.20060  0.29809  0.35924  1
