CIF file written using JARVIS-Tools package.
data_Zn2CrWO6
_symmetry_space_group_name_H-M  'R3'
_cell_length_a       5.20332
_cell_length_b       5.20337
_cell_length_c       5.4879
_cell_angle_alpha    61.7025
_cell_angle_beta     61.7031
_cell_angle_gamma    60.002

_symmetry_Int_Tables_number  146
_chemical_formula_structural  Zn2CrWO6
_chemical_formula_sum  Zn2CrWO6
_cell_volume  107.68969949367843
_cell_formula_units_Z  1
loop_
  _symmetry_equiv_pos_site_id
 _symmetry_equiv_pos_as_xyz
 1  'x, y, z'
loop_
 _atom_site_type_symbol
 _atom_site_label
 _atom_site_symmetry_multiplicity
 _atom_site_fract_x
 _atom_site_fract_y
 _atom_site_fract_z
 _atom_site_fract_occupancy
 Cr  Cr1  1  0.51841  0.50175  0.49274  1
 O  O1  1  0.13603  0.77079  0.73298  1
 O  O2  1  0.90224  0.24755  0.23823  1
 O  O3  1  0.64330  0.88555  0.23817  1
 O  O4  1  0.78741  0.37483  0.73305  1
 O  O5  1  0.26426  0.62662  0.23817  1
 O  O6  1  0.39149  0.11940  0.73300  1
 W  W1  1  0.01456  0.99791  0.00427  1
 Zn  Zn1  1  0.76877  0.75214  0.74160  1
 Zn  Zn2  1  0.23569  0.21896  0.34103  1
