CIF file written using JARVIS-Tools package.
data_Li8CeO6
_symmetry_space_group_name_H-M  'R-3'
_cell_length_a       6.27026
_cell_length_b       6.27026
_cell_length_c       6.27026
_cell_angle_alpha    53.0158
_cell_angle_beta     53.0158
_cell_angle_gamma    53.0158

_symmetry_Int_Tables_number  148
_chemical_formula_structural  Li8CeO6
_chemical_formula_sum  Li8CeO6
_cell_volume  145.78280195590784
_cell_formula_units_Z  1
loop_
  _symmetry_equiv_pos_site_id
 _symmetry_equiv_pos_as_xyz
 1  'x, y, z'
loop_
 _atom_site_type_symbol
 _atom_site_label
 _atom_site_symmetry_multiplicity
 _atom_site_fract_x
 _atom_site_fract_y
 _atom_site_fract_z
 _atom_site_fract_occupancy
 Ce  Ce1  1  0.00000  0.00000  0.00000  1
 Li  Li1  1  0.35704  0.35704  0.35704  1
 Li  Li2  1  0.50044  0.89863  0.22879  1
 Li  Li3  1  0.22879  0.50044  0.89863  1
 Li  Li4  1  0.89863  0.22879  0.50044  1
 Li  Li5  1  0.49956  0.10137  0.77121  1
 Li  Li6  1  0.77121  0.49956  0.10137  1
 Li  Li7  1  0.64296  0.64296  0.64296  1
 Li  Li8  1  0.10137  0.77121  0.49956  1
 O  O1  1  0.24193  0.89799  0.60234  1
 O  O2  1  0.10201  0.39766  0.75807  1
 O  O3  1  0.75807  0.10201  0.39766  1
 O  O4  1  0.60234  0.24193  0.89799  1
 O  O5  1  0.89799  0.60234  0.24193  1
 O  O6  1  0.39766  0.75807  0.10201  1
