CIF file written using JARVIS-Tools package.
data_KVO3
_symmetry_space_group_name_H-M  'Pbcm'
_cell_length_a       5.2107
_cell_length_b       5.68184
_cell_length_c       10.6725
_cell_angle_alpha    90
_cell_angle_beta     90
_cell_angle_gamma    90

_symmetry_Int_Tables_number  57
_chemical_formula_structural  KVO3
_chemical_formula_sum  K4V4O2
_cell_volume  315.975316061485
_cell_formula_units_Z  4
loop_
  _symmetry_equiv_pos_site_id
 _symmetry_equiv_pos_as_xyz
 1  'x, y, z'
loop_
 _atom_site_type_symbol
 _atom_site_label
 _atom_site_symmetry_multiplicity
 _atom_site_fract_x
 _atom_site_fract_y
 _atom_site_fract_z
 _atom_site_fract_occupancy
 K  K1  1  0.06019  0.75000  0.89406  1
 K  K2  1  0.06019  0.25000  0.60594  1
 K  K3  1  0.93981  0.25000  0.10594  1
 K  K4  1  0.93981  0.75000  0.39406  1
 O  O1  1  0.39557  0.75000  0.51712  1
 O  O2  1  0.41379  0.00000  0.75000  1
 O  O3  1  0.60443  0.25000  0.48288  1
 O  O4  1  0.60443  0.75000  0.01712  1
 O  O5  1  0.39557  0.25000  0.98288  1
 O  O6  1  0.84705  0.25000  0.85192  1
 O  O7  1  0.15295  0.25000  0.35192  1
 O  O8  1  0.58621  0.00000  0.25000  1
 O  O9  1  0.84705  0.75000  0.64808  1
 O  O10  1  0.41379  0.50000  0.75000  1
 O  O11  1  0.15295  0.75000  0.14808  1
 O  O12  1  0.58621  0.50000  0.25000  1
 V  V1  1  0.52634  0.75000  0.65904  1
 V  V2  1  0.52634  0.25000  0.84096  1
 V  V3  1  0.47366  0.25000  0.34096  1
 V  V4  1  0.47366  0.75000  0.15904  1
