CIF file written using JARVIS-Tools package.
data_CePRuO
_symmetry_space_group_name_H-M  'P4/nmm'
_cell_length_a       4.02115
_cell_length_b       4.02115
_cell_length_c       7.95663
_cell_angle_alpha    90
_cell_angle_beta     90
_cell_angle_gamma    90

_symmetry_Int_Tables_number  129
_chemical_formula_structural  CePRuO
_chemical_formula_sum  Ce2P2Ru2O2
_cell_volume  128.65570253643904
_cell_formula_units_Z  2
loop_
  _symmetry_equiv_pos_site_id
 _symmetry_equiv_pos_as_xyz
 1  'x, y, z'
loop_
 _atom_site_type_symbol
 _atom_site_label
 _atom_site_symmetry_multiplicity
 _atom_site_fract_x
 _atom_site_fract_y
 _atom_site_fract_z
 _atom_site_fract_occupancy
 Ce  Ce1  1  0.50000  0.00000  0.84824  1
 Ce  Ce2  1  0.00000  0.50000  0.15176  1
 O  O1  1  0.00000  0.00000  0.00000  1
 O  O2  1  0.50000  0.50000  0.00000  1
 P  P1  1  0.00000  0.50000  0.64985  1
 P  P2  1  0.50000  0.00000  0.35015  1
 Ru  Ru1  1  0.50000  0.50000  0.50000  1
 Ru  Ru2  1  0.00000  0.00000  0.50000  1
