CIF file written using JARVIS-Tools package.
data_LiMnPO4
_symmetry_space_group_name_H-M  'Pna2_1'
_cell_length_a       5.0586
_cell_length_b       6.79923
_cell_length_c       10.1685
_cell_angle_alpha    90
_cell_angle_beta     90
_cell_angle_gamma    90

_symmetry_Int_Tables_number  33
_chemical_formula_structural  LiMnPO4
_chemical_formula_sum  Li4Mn4P4O6
_cell_volume  349.7405351415251
_cell_formula_units_Z  4
loop_
  _symmetry_equiv_pos_site_id
 _symmetry_equiv_pos_as_xyz
 1  'x, y, z'
loop_
 _atom_site_type_symbol
 _atom_site_label
 _atom_site_symmetry_multiplicity
 _atom_site_fract_x
 _atom_site_fract_y
 _atom_site_fract_z
 _atom_site_fract_occupancy
 Li  Li1  1  0.31751  0.78714  0.84677  1
 Li  Li2  1  0.81751  0.28714  0.65323  1
 Li  Li3  1  0.18249  0.78714  0.34677  1
 Li  Li4  1  0.68249  0.28714  0.15323  1
 Mn  Mn1  1  0.31684  0.28658  0.84491  1
 Mn  Mn2  1  0.81684  0.78658  0.65509  1
 Mn  Mn3  1  0.18316  0.28658  0.34491  1
 Mn  Mn4  1  0.68316  0.78658  0.15509  1
 O  O1  1  0.87590  0.52961  0.11390  1
 O  O2  1  0.74797  0.04349  0.05527  1
 O  O3  1  0.25203  0.54349  0.94473  1
 O  O4  1  0.12410  0.02961  0.88610  1
 O  O5  1  0.30475  0.34995  0.15526  1
 O  O6  1  0.80475  0.84995  0.34474  1
 O  O7  1  0.71307  0.22461  0.83789  1
 O  O8  1  0.28693  0.72461  0.16211  1
 O  O9  1  0.21307  0.72461  0.66211  1
 O  O10  1  0.24797  0.54349  0.44473  1
 O  O11  1  0.78693  0.22461  0.33789  1
 O  O12  1  0.75203  0.04349  0.55527  1
 O  O13  1  0.69525  0.84995  0.84474  1
 O  O14  1  0.37590  0.02961  0.38610  1
 O  O15  1  0.19525  0.34995  0.65526  1
 O  O16  1  0.62410  0.52961  0.61390  1
 P  P1  1  0.17999  0.53680  0.09270  1
 P  P2  1  0.67999  0.03680  0.40730  1
 P  P3  1  0.32001  0.53680  0.59270  1
 P  P4  1  0.82001  0.03680  0.90730  1
