CIF file written using JARVIS-Tools package.
data_MgFe4S8
_symmetry_space_group_name_H-M  'R-3m'
_cell_length_a       6.77157
_cell_length_b       6.74045
_cell_length_c       6.74046
_cell_angle_alpha    60
_cell_angle_beta     60.1519
_cell_angle_gamma    60.1518

_symmetry_Int_Tables_number  166
_chemical_formula_structural  MgFe4S8
_chemical_formula_sum  MgFe4S8
_cell_volume  218.04477578871897
_cell_formula_units_Z  1
loop_
  _symmetry_equiv_pos_site_id
 _symmetry_equiv_pos_as_xyz
 1  'x, y, z'
loop_
 _atom_site_type_symbol
 _atom_site_label
 _atom_site_symmetry_multiplicity
 _atom_site_fract_x
 _atom_site_fract_y
 _atom_site_fract_z
 _atom_site_fract_occupancy
 Fe  Fe1  1  -0.00000  0.50000  0.50000  1
 Fe  Fe2  1  0.50000  0.50000  0.00000  1
 Fe  Fe3  1  0.50000  0.50000  0.50000  1
 Fe  Fe4  1  0.50000  -0.00000  0.50000  1
 Mg  Mg1  1  0.50000  -0.00000  0.00000  1
 S  S1  1  0.25733  0.26162  0.26162  1
 S  S2  1  0.25733  0.26162  0.71942  1
 S  S3  1  0.25733  0.71942  0.26162  1
 S  S4  1  0.72607  0.25798  0.25798  1
 S  S5  1  0.27393  0.74202  0.74202  1
 S  S6  1  0.74267  0.73838  0.28058  1
 S  S7  1  0.74267  0.28058  0.73838  1
 S  S8  1  0.74267  0.73838  0.73838  1
