CIF file written using JARVIS-Tools package.
data_LiVSiO5
_symmetry_space_group_name_H-M  'P2_1/m'
_cell_length_a       4.58501
_cell_length_b       6.22996
_cell_length_c       6.4109
_cell_angle_alpha    90
_cell_angle_beta     93.8829
_cell_angle_gamma    90

_symmetry_Int_Tables_number  11
_chemical_formula_structural  LiVSiO5
_chemical_formula_sum  Li2V2Si2O0
_cell_volume  182.70371852212526
_cell_formula_units_Z  2
loop_
  _symmetry_equiv_pos_site_id
 _symmetry_equiv_pos_as_xyz
 1  'x, y, z'
loop_
 _atom_site_type_symbol
 _atom_site_label
 _atom_site_symmetry_multiplicity
 _atom_site_fract_x
 _atom_site_fract_y
 _atom_site_fract_z
 _atom_site_fract_occupancy
 Li  Li1  1  0.50000  0.00000  0.50000  1
 Li  Li2  1  0.50000  0.50000  0.50000  1
 O  O1  1  0.15012  0.25000  0.03542  1
 O  O2  1  0.24614  0.75000  0.29576  1
 O  O3  1  0.77312  0.46421  0.26514  1
 O  O4  1  0.77312  0.03579  0.26514  1
 O  O5  1  0.22991  0.25000  0.45177  1
 O  O6  1  0.77009  0.75000  0.54823  1
 O  O7  1  0.22688  0.96421  0.73486  1
 O  O8  1  0.22688  0.53579  0.73486  1
 O  O9  1  0.75386  0.25000  0.70424  1
 O  O10  1  0.84988  0.75000  0.96458  1
 Si  Si1  1  0.98377  0.25000  0.25499  1
 Si  Si2  1  0.01623  0.75000  0.74501  1
 V  V1  1  0.89254  0.75000  0.24478  1
 V  V2  1  0.10746  0.25000  0.75522  1
