CIF file written using JARVIS-Tools package.
data_BaH2
_symmetry_space_group_name_H-M  'Pnma'
_cell_length_a       4.14649
_cell_length_b       6.8171
_cell_length_c       7.89665
_cell_angle_alpha    90
_cell_angle_beta     90
_cell_angle_gamma    90

_symmetry_Int_Tables_number  62
_chemical_formula_structural  BaH2
_chemical_formula_sum  Ba4H8
_cell_volume  223.21520936857578
_cell_formula_units_Z  4
loop_
  _symmetry_equiv_pos_site_id
 _symmetry_equiv_pos_as_xyz
 1  'x, y, z'
loop_
 _atom_site_type_symbol
 _atom_site_label
 _atom_site_symmetry_multiplicity
 _atom_site_fract_x
 _atom_site_fract_y
 _atom_site_fract_z
 _atom_site_fract_occupancy
 Ba  Ba1  1  0.25000  0.75975  0.38568  1
 Ba  Ba2  1  0.75000  0.24025  0.61432  1
 Ba  Ba3  1  0.25000  0.25975  0.11432  1
 Ba  Ba4  1  0.75000  0.74025  0.88568  1
 H  H1  1  0.25000  0.52983  0.67968  1
 H  H2  1  0.75000  0.47017  0.32032  1
 H  H3  1  0.25000  0.02983  0.82032  1
 H  H4  1  0.75000  0.97017  0.17968  1
 H  H5  1  0.75000  0.35503  0.92940  1
 H  H6  1  0.25000  0.64497  0.07060  1
 H  H7  1  0.75000  0.85503  0.57060  1
 H  H8  1  0.25000  0.14497  0.42940  1
