CIF file written using JARVIS-Tools package.
data_S2N
_symmetry_space_group_name_H-M  'P4_2nm'
_cell_length_a       11.1766
_cell_length_b       11.1766
_cell_length_c       3.7678
_cell_angle_alpha    90
_cell_angle_beta     90
_cell_angle_gamma    90

_symmetry_Int_Tables_number  102
_chemical_formula_structural  S2N
_chemical_formula_sum  S6N8
_cell_volume  470.6591251129554
_cell_formula_units_Z  8
loop_
  _symmetry_equiv_pos_site_id
 _symmetry_equiv_pos_as_xyz
 1  'x, y, z'
loop_
 _atom_site_type_symbol
 _atom_site_label
 _atom_site_symmetry_multiplicity
 _atom_site_fract_x
 _atom_site_fract_y
 _atom_site_fract_z
 _atom_site_fract_occupancy
 N  N1  1  0.07249  0.24536  0.15901  1
 N  N2  1  0.92751  0.75464  0.15901  1
 N  N3  1  0.57249  0.25464  0.65901  1
 N  N4  1  0.42751  0.74536  0.65901  1
 N  N5  1  0.75464  0.92751  0.15901  1
 N  N6  1  0.24536  0.07249  0.15901  1
 N  N7  1  0.74536  0.42751  0.65901  1
 N  N8  1  0.25464  0.57249  0.65901  1
 S  S1  1  0.35750  0.15009  0.32934  1
 S  S2  1  0.85750  0.34991  0.82934  1
 S  S3  1  0.14250  0.65009  0.82934  1
 S  S4  1  0.84991  0.64250  0.32934  1
 S  S5  1  0.15009  0.35750  0.32934  1
 S  S6  1  0.64250  0.84991  0.32934  1
 S  S7  1  0.32546  0.32546  0.15822  1
 S  S8  1  0.67454  0.67454  0.15822  1
 S  S9  1  0.17454  0.82546  0.65822  1
 S  S10  1  0.82546  0.17454  0.65822  1
 S  S11  1  0.88810  0.88810  0.09639  1
 S  S12  1  0.38810  0.61190  0.59639  1
 S  S13  1  0.61190  0.38810  0.59639  1
 S  S14  1  0.11190  0.11190  0.09639  1
 S  S15  1  0.34991  0.85750  0.82934  1
 S  S16  1  0.65009  0.14250  0.82934  1
