CIF file written using JARVIS-Tools package.
data_LiInSe2
_symmetry_space_group_name_H-M  'Pna2_1'
_cell_length_a       6.88378
_cell_length_b       7.27311
_cell_length_c       8.44255
_cell_angle_alpha    90
_cell_angle_beta     90
_cell_angle_gamma    90

_symmetry_Int_Tables_number  33
_chemical_formula_structural  LiInSe2
_chemical_formula_sum  Li4In4Se8
_cell_volume  422.68880598453666
_cell_formula_units_Z  4
loop_
  _symmetry_equiv_pos_site_id
 _symmetry_equiv_pos_as_xyz
 1  'x, y, z'
loop_
 _atom_site_type_symbol
 _atom_site_label
 _atom_site_symmetry_multiplicity
 _atom_site_fract_x
 _atom_site_fract_y
 _atom_site_fract_z
 _atom_site_fract_occupancy
 In  In1  1  0.99784  0.58096  0.37451  1
 In  In2  1  0.49784  0.41904  0.62549  1
 In  In3  1  0.49784  0.91904  0.87451  1
 In  In4  1  0.99784  0.08096  0.12549  1
 Li  Li1  1  0.99909  0.58747  0.87630  1
 Li  Li2  1  0.49909  0.41253  0.12370  1
 Li  Li3  1  0.49909  0.91253  0.37630  1
 Li  Li4  1  0.99909  0.08747  0.62370  1
 Se  Se1  1  0.61615  0.08325  0.13268  1
 Se  Se2  1  0.11615  0.91675  0.86732  1
 Se  Se3  1  0.11615  0.41675  0.63268  1
 Se  Se4  1  0.61615  0.58325  0.36732  1
 Se  Se5  1  0.12972  0.41916  0.11863  1
 Se  Se6  1  0.62972  0.58084  0.88137  1
 Se  Se7  1  0.62972  0.08084  0.61863  1
 Se  Se8  1  0.12972  0.91916  0.38137  1
