CIF file written using JARVIS-Tools package.
data_SmTlMo2O8
_symmetry_space_group_name_H-M  'P4/nnc'
_cell_length_a       6.26516
_cell_length_b       6.26516
_cell_length_c       9.54162
_cell_angle_alpha    90
_cell_angle_beta     90
_cell_angle_gamma    90

_symmetry_Int_Tables_number  126
_chemical_formula_structural  SmTlMo2O8
_chemical_formula_sum  Sm2Tl2Mo4O6
_cell_volume  374.5301308552437
_cell_formula_units_Z  2
loop_
  _symmetry_equiv_pos_site_id
 _symmetry_equiv_pos_as_xyz
 1  'x, y, z'
loop_
 _atom_site_type_symbol
 _atom_site_label
 _atom_site_symmetry_multiplicity
 _atom_site_fract_x
 _atom_site_fract_y
 _atom_site_fract_z
 _atom_site_fract_occupancy
 Mo  Mo1  1  0.50000  0.00000  0.75000  1
 Mo  Mo2  1  0.00000  0.50000  0.75000  1
 Mo  Mo3  1  0.50000  0.00000  0.25000  1
 Mo  Mo4  1  0.00000  0.50000  0.25000  1
 O  O1  1  0.30402  0.11574  0.13805  1
 O  O2  1  0.80402  0.38426  0.63805  1
 O  O3  1  0.19598  0.61574  0.63805  1
 O  O4  1  0.38426  0.80402  0.36195  1
 O  O5  1  0.30402  0.88426  0.86195  1
 O  O6  1  0.61574  0.80402  0.63805  1
 O  O7  1  0.19598  0.38426  0.36195  1
 O  O8  1  0.38426  0.19598  0.63805  1
 O  O9  1  0.61574  0.19598  0.36195  1
 O  O10  1  0.69598  0.11574  0.86195  1
 O  O11  1  0.69598  0.88426  0.13805  1
 O  O12  1  0.80402  0.61574  0.36195  1
 O  O13  1  0.88426  0.69598  0.86195  1
 O  O14  1  0.11574  0.30402  0.86195  1
 O  O15  1  0.11574  0.69598  0.13805  1
 O  O16  1  0.88426  0.30402  0.13805  1
 Sm  Sm1  1  0.00000  0.00000  0.00000  1
 Sm  Sm2  1  0.50000  0.50000  0.50000  1
 Tl  Tl1  1  0.00000  0.00000  0.50000  1
 Tl  Tl2  1  0.50000  0.50000  0.00000  1
