CIF file written using JARVIS-Tools package.
data_Rb2In4O7
_symmetry_space_group_name_H-M  'P-31m'
_cell_length_a       5.69962
_cell_length_b       5.69962
_cell_length_c       7.4023
_cell_angle_alpha    90
_cell_angle_beta     90
_cell_angle_gamma    120

_symmetry_Int_Tables_number  162
_chemical_formula_structural  Rb2In4O7
_chemical_formula_sum  Rb2In4O7
_cell_volume  208.252042651903
_cell_formula_units_Z  1
loop_
  _symmetry_equiv_pos_site_id
 _symmetry_equiv_pos_as_xyz
 1  'x, y, z'
loop_
 _atom_site_type_symbol
 _atom_site_label
 _atom_site_symmetry_multiplicity
 _atom_site_fract_x
 _atom_site_fract_y
 _atom_site_fract_z
 _atom_site_fract_occupancy
 In  In1  1  0.00000  0.00000  0.72380  1
 In  In2  1  0.66667  0.33333  0.50000  1
 In  In3  1  0.00000  0.00000  0.27620  1
 In  In4  1  0.33333  0.66667  0.50000  1
 O  O1  1  0.35940  0.00000  0.66716  1
 O  O2  1  0.64060  0.64060  0.66716  1
 O  O3  1  0.35940  0.35940  0.33284  1
 O  O4  1  -0.00000  0.64060  0.33284  1
 O  O5  1  0.00000  0.35940  0.66716  1
 O  O6  1  0.00000  0.00000  0.00000  1
 O  O7  1  0.64060  -0.00000  0.33284  1
 Rb  Rb1  1  0.33333  0.66667  0.00000  1
 Rb  Rb2  1  0.66667  0.33333  0.00000  1
