CIF file written using JARVIS-Tools package.
data_LiMnP2O7
_symmetry_space_group_name_H-M  'P1'
_cell_length_a       5.17108
_cell_length_b       6.93014
_cell_length_c       8.00694
_cell_angle_alpha    113.181
_cell_angle_beta     88.5838
_cell_angle_gamma    95.0156

_symmetry_Int_Tables_number  1
_chemical_formula_structural  LiMnP2O7
_chemical_formula_sum  Li2Mn2P4O4
_cell_volume  262.74870950302477
_cell_formula_units_Z  2
loop_
  _symmetry_equiv_pos_site_id
 _symmetry_equiv_pos_as_xyz
 1  'x, y, z'
loop_
 _atom_site_type_symbol
 _atom_site_label
 _atom_site_symmetry_multiplicity
 _atom_site_fract_x
 _atom_site_fract_y
 _atom_site_fract_z
 _atom_site_fract_occupancy
 Li  Li1  1  0.70461  0.14750  0.98878  1
 Li  Li2  1  0.26544  0.93125  0.44108  1
 Mn  Mn1  1  0.79016  0.75650  0.72834  1
 Mn  Mn2  1  0.22537  0.22080  0.27038  1
 O  O1  1  0.73077  0.63076  0.15126  1
 O  O2  1  0.13479  0.65050  0.76241  1
 O  O3  1  0.25300  0.36266  0.85001  1
 O  O4  1  0.86372  0.33268  0.21470  1
 O  O5  1  0.85315  0.69985  0.47391  1
 O  O6  1  0.94579  0.04599  0.79574  1
 O  O7  1  0.69222  0.85858  0.97880  1
 O  O8  1  0.54486  0.99015  0.30182  1
 O  O9  1  0.17692  0.27502  0.52135  1
 O  O10  1  0.03117  0.95354  0.22926  1
 O  O11  1  0.41163  0.99417  0.68292  1
 O  O12  1  0.32888  0.14574  0.02044  1
 O  O13  1  0.57926  0.50419  0.67750  1
 O  O14  1  0.43001  0.48473  0.33212  1
 P  P1  1  0.72112  0.53070  0.30266  1
 P  P2  1  0.74579  0.87251  0.17137  1
 P  P3  1  0.28491  0.45898  0.69640  1
 P  P4  1  0.23688  0.12068  0.83040  1
