CIF file written using JARVIS-Tools package.
data_LiMnF3
_symmetry_space_group_name_H-M  'C2/c'
_cell_length_a       5.03653
_cell_length_b       5.03649
_cell_length_c       9.60441
_cell_angle_alpha    91.9807
_cell_angle_beta     91.9855
_cell_angle_gamma    117.017

_symmetry_Int_Tables_number  15
_chemical_formula_structural  LiMnF3
_chemical_formula_sum  Li4Mn4F2
_cell_volume  216.56628512890026
_cell_formula_units_Z  4
loop_
  _symmetry_equiv_pos_site_id
 _symmetry_equiv_pos_as_xyz
 1  'x, y, z'
loop_
 _atom_site_type_symbol
 _atom_site_label
 _atom_site_symmetry_multiplicity
 _atom_site_fract_x
 _atom_site_fract_y
 _atom_site_fract_z
 _atom_site_fract_occupancy
 F  F1  1  0.66662  0.02803  0.88334  1
 F  F2  1  0.01430  0.35430  0.13069  1
 F  F3  1  0.65768  0.62990  0.62586  1
 F  F4  1  0.02796  0.66656  0.38335  1
 F  F5  1  0.33337  0.97199  0.11665  1
 F  F6  1  0.34233  0.37012  0.37414  1
 F  F7  1  0.35438  0.01444  0.63067  1
 F  F8  1  0.64562  0.98558  0.36933  1
 F  F9  1  0.37021  0.34240  0.87415  1
 F  F10  1  0.98570  0.64572  0.86931  1
 F  F11  1  0.97204  0.33346  0.61665  1
 F  F12  1  0.62979  0.65762  0.12585  1
 Li  Li1  1  0.64965  0.31336  0.04037  1
 Li  Li2  1  0.68659  0.35028  0.45964  1
 Li  Li3  1  0.35035  0.68666  0.95963  1
 Li  Li4  1  0.31341  0.64974  0.54036  1
 Mn  Mn1  1  0.67217  0.32793  0.75000  1
 Mn  Mn2  1  0.32783  0.67209  0.25000  1
 Mn  Mn3  1  0.00743  -0.00753  0.25000  1
 Mn  Mn4  1  -0.00743  0.00756  0.75000  1
