CIF file written using JARVIS-Tools package.
data_KAuI3
_symmetry_space_group_name_H-M  'P2_1/c'
_cell_length_a       7.17565
_cell_length_b       9.3355
_cell_length_c       13.2737
_cell_angle_alpha    90
_cell_angle_beta     120.499
_cell_angle_gamma    90

_symmetry_Int_Tables_number  14
_chemical_formula_structural  KAuI3
_chemical_formula_sum  K4Au4I2
_cell_volume  766.1530956489423
_cell_formula_units_Z  4
loop_
  _symmetry_equiv_pos_site_id
 _symmetry_equiv_pos_as_xyz
 1  'x, y, z'
loop_
 _atom_site_type_symbol
 _atom_site_label
 _atom_site_symmetry_multiplicity
 _atom_site_fract_x
 _atom_site_fract_y
 _atom_site_fract_z
 _atom_site_fract_occupancy
 Au  Au1  1  0.50000  0.50000  -0.00000  1
 Au  Au2  1  0.50000  0.00000  0.50000  1
 Au  Au3  1  -0.00000  0.50000  0.50000  1
 Au  Au4  1  0.00000  0.00000  0.00000  1
 I  I1  1  0.16049  0.16203  0.46435  1
 I  I2  1  0.73442  0.15454  0.03796  1
 I  I3  1  0.83951  0.83797  0.53565  1
 I  I4  1  0.26558  0.84546  0.96204  1
 I  I5  1  0.73442  0.34546  0.53796  1
 I  I6  1  0.26558  0.65454  0.46204  1
 I  I7  1  0.65194  0.49527  0.23511  1
 I  I8  1  0.16049  0.33797  0.96435  1
 I  I9  1  0.34806  0.50473  0.76489  1
 I  I10  1  0.34806  0.99527  0.26489  1
 I  I11  1  0.83951  0.66203  0.03565  1
 I  I12  1  0.65194  0.00473  0.73511  1
 K  K1  1  0.18210  0.38052  0.24781  1
 K  K2  1  0.81790  0.88052  0.25219  1
 K  K3  1  0.81790  0.61948  0.75219  1
 K  K4  1  0.18210  0.11948  0.74781  1
