CIF file written using JARVIS-Tools package.
data_HfO2
_symmetry_space_group_name_H-M  'Pnma'
_cell_length_a       3.31366
_cell_length_b       5.55391
_cell_length_c       6.48015
_cell_angle_alpha    90
_cell_angle_beta     90
_cell_angle_gamma    90

_symmetry_Int_Tables_number  62
_chemical_formula_structural  HfO2
_chemical_formula_sum  Hf4O8
_cell_volume  119.259047698426
_cell_formula_units_Z  4
loop_
  _symmetry_equiv_pos_site_id
 _symmetry_equiv_pos_as_xyz
 1  'x, y, z'
loop_
 _atom_site_type_symbol
 _atom_site_label
 _atom_site_symmetry_multiplicity
 _atom_site_fract_x
 _atom_site_fract_y
 _atom_site_fract_z
 _atom_site_fract_occupancy
 Hf  Hf1  1  0.25000  0.25287  0.61031  1
 Hf  Hf2  1  0.75000  0.74713  0.38969  1
 Hf  Hf3  1  0.25000  0.75287  0.88969  1
 Hf  Hf4  1  0.75000  0.24713  0.11031  1
 O  O1  1  0.75000  0.47677  0.83992  1
 O  O2  1  0.25000  0.52323  0.16008  1
 O  O3  1  0.75000  0.97677  0.66008  1
 O  O4  1  0.25000  0.02323  0.33992  1
 O  O5  1  0.75000  0.35986  0.42502  1
 O  O6  1  0.25000  0.64014  0.57498  1
 O  O7  1  0.75000  0.85986  0.07498  1
 O  O8  1  0.25000  0.14014  0.92502  1
