CIF file written using JARVIS-Tools package.
data_Na5MnO4
_symmetry_space_group_name_H-M  'Pmn2_1'
_cell_length_a       5.80186
_cell_length_b       6.01343
_cell_length_c       7.76604
_cell_angle_alpha    90
_cell_angle_beta     90
_cell_angle_gamma    90

_symmetry_Int_Tables_number  31
_chemical_formula_structural  Na5MnO4
_chemical_formula_sum  Na0Mn2O8
_cell_volume  270.9501554360204
_cell_formula_units_Z  2
loop_
  _symmetry_equiv_pos_site_id
 _symmetry_equiv_pos_as_xyz
 1  'x, y, z'
loop_
 _atom_site_type_symbol
 _atom_site_label
 _atom_site_symmetry_multiplicity
 _atom_site_fract_x
 _atom_site_fract_y
 _atom_site_fract_z
 _atom_site_fract_occupancy
 Mn  Mn1  1  0.99445  0.82619  0.00000  1
 Mn  Mn2  1  0.49445  0.17381  0.50000  1
 Na  Na1  1  0.74659  0.60565  0.69759  1
 Na  Na2  1  0.24094  0.67924  0.50000  1
 Na  Na3  1  0.43612  0.92849  0.17847  1
 Na  Na4  1  0.24659  0.39435  0.19759  1
 Na  Na5  1  0.74659  0.60565  0.30241  1
 Na  Na6  1  0.43612  0.92849  0.82153  1
 Na  Na7  1  0.93612  0.07151  0.67847  1
 Na  Na8  1  0.93612  0.07151  0.32153  1
 Na  Na9  1  0.74094  0.32076  0.00000  1
 Na  Na10  1  0.24659  0.39435  0.80241  1
 O  O1  1  0.09376  0.74292  0.77521  1
 O  O2  1  0.09376  0.74292  0.22479  1
 O  O3  1  0.59376  0.25708  0.72479  1
 O  O4  1  0.61513  0.87595  0.50000  1
 O  O5  1  0.11513  0.12405  0.00000  1
 O  O6  1  0.18915  0.28638  0.50000  1
 O  O7  1  0.68915  0.71362  0.00000  1
 O  O8  1  0.59376  0.25708  0.27521  1
