CIF file written using JARVIS-Tools package.
data_CeGe2
_symmetry_space_group_name_H-M  'I4_1/amd'
_cell_length_a       4.06423
_cell_length_b       4.06423
_cell_length_c       8.71279
_cell_angle_alpha    103.487
_cell_angle_beta     103.487
_cell_angle_gamma    90

_symmetry_Int_Tables_number  141
_chemical_formula_structural  CeGe2
_chemical_formula_sum  Ce2Ge4
_cell_volume  135.86373384187826
_cell_formula_units_Z  2
loop_
  _symmetry_equiv_pos_site_id
 _symmetry_equiv_pos_as_xyz
 1  'x, y, z'
loop_
 _atom_site_type_symbol
 _atom_site_label
 _atom_site_symmetry_multiplicity
 _atom_site_fract_x
 _atom_site_fract_y
 _atom_site_fract_z
 _atom_site_fract_occupancy
 Ce  Ce1  1  0.87500  0.62500  0.25000  1
 Ce  Ce2  1  0.12500  0.37500  0.75000  1
 Ge  Ge1  1  0.70441  0.95441  0.90882  1
 Ge  Ge2  1  0.45441  0.20441  0.40882  1
 Ge  Ge3  1  0.54559  0.79559  0.59118  1
 Ge  Ge4  1  0.29559  0.04559  0.09118  1
