CIF file written using JARVIS-Tools package.
data_Sr2PbO4
_symmetry_space_group_name_H-M  'Pbam'
_cell_length_a       3.54933
_cell_length_b       6.2148
_cell_length_c       10.1616
_cell_angle_alpha    90
_cell_angle_beta     90
_cell_angle_gamma    90

_symmetry_Int_Tables_number  55
_chemical_formula_structural  Sr2PbO4
_chemical_formula_sum  Sr4Pb2O8
_cell_volume  224.14974140535762
_cell_formula_units_Z  2
loop_
  _symmetry_equiv_pos_site_id
 _symmetry_equiv_pos_as_xyz
 1  'x, y, z'
loop_
 _atom_site_type_symbol
 _atom_site_label
 _atom_site_symmetry_multiplicity
 _atom_site_fract_x
 _atom_site_fract_y
 _atom_site_fract_z
 _atom_site_fract_occupancy
 O  O1  1  0.00000  0.13368  0.80480  1
 O  O2  1  0.00000  0.86632  0.19520  1
 O  O3  1  0.00000  0.63368  0.69520  1
 O  O4  1  0.00000  0.36632  0.30480  1
 O  O5  1  0.50000  0.27277  0.55146  1
 O  O6  1  0.50000  0.72723  0.44854  1
 O  O7  1  0.50000  0.22723  0.05146  1
 O  O8  1  0.50000  0.77277  0.94854  1
 Pb  Pb1  1  0.00000  0.50000  0.50000  1
 Pb  Pb2  1  0.00000  0.00000  0.00000  1
 Sr  Sr1  1  0.50000  0.42439  0.81896  1
 Sr  Sr2  1  0.50000  0.57561  0.18104  1
 Sr  Sr3  1  0.50000  0.92439  0.68104  1
 Sr  Sr4  1  0.50000  0.07561  0.31896  1
