CIF file written using JARVIS-Tools package.
data_TaNO
_symmetry_space_group_name_H-M  'P2_1/c'
_cell_length_a       5.00167
_cell_length_b       5.06742
_cell_length_c       5.22477
_cell_angle_alpha    90
_cell_angle_beta     99.5311
_cell_angle_gamma    90

_symmetry_Int_Tables_number  14
_chemical_formula_structural  TaNO
_chemical_formula_sum  Ta4N4O4
_cell_volume  130.59662186720638
_cell_formula_units_Z  4
loop_
  _symmetry_equiv_pos_site_id
 _symmetry_equiv_pos_as_xyz
 1  'x, y, z'
loop_
 _atom_site_type_symbol
 _atom_site_label
 _atom_site_symmetry_multiplicity
 _atom_site_fract_x
 _atom_site_fract_y
 _atom_site_fract_z
 _atom_site_fract_occupancy
 N  N1  1  0.55715  0.25609  0.02042  1
 N  N2  1  0.44285  0.75609  0.47958  1
 N  N3  1  0.44285  0.74391  0.97958  1
 N  N4  1  0.55715  0.24391  0.52042  1
 O  O1  1  0.93720  0.67357  0.65383  1
 O  O2  1  0.06280  0.17357  0.84617  1
 O  O3  1  0.06280  0.32643  0.34617  1
 O  O4  1  0.93720  0.82643  0.15383  1
 Ta  Ta1  1  0.70670  0.54491  0.28372  1
 Ta  Ta2  1  0.29330  0.04491  0.21628  1
 Ta  Ta3  1  0.29330  0.45509  0.71628  1
 Ta  Ta4  1  0.70670  0.95509  0.78372  1
