CIF file written using JARVIS-Tools package.
data_Mg3Al8FeSi6
_symmetry_space_group_name_H-M  'P-62m'
_cell_length_a       6.79995
_cell_length_b       6.79995
_cell_length_c       7.66375
_cell_angle_alpha    90
_cell_angle_beta     90
_cell_angle_gamma    120

_symmetry_Int_Tables_number  189
_chemical_formula_structural  Mg3Al8FeSi6
_chemical_formula_sum  Mg3Al8FeSi6
_cell_volume  306.890232771257
_cell_formula_units_Z  1
loop_
  _symmetry_equiv_pos_site_id
 _symmetry_equiv_pos_as_xyz
 1  'x, y, z'
loop_
 _atom_site_type_symbol
 _atom_site_label
 _atom_site_symmetry_multiplicity
 _atom_site_fract_x
 _atom_site_fract_y
 _atom_site_fract_z
 _atom_site_fract_occupancy
 Al  Al1  1  0.33333  0.66667  0.21497  1
 Al  Al2  1  0.64614  0.00000  0.00000  1
 Al  Al3  1  0.35386  0.35386  0.00000  1
 Al  Al4  1  0.00000  0.00000  0.50000  1
 Al  Al5  1  0.00000  0.64614  0.00000  1
 Al  Al6  1  0.66667  0.33333  0.78503  1
 Al  Al7  1  0.66667  0.33333  0.21497  1
 Al  Al8  1  0.33333  0.66667  0.78503  1
 Fe  Fe1  1  0.00000  0.00000  0.00000  1
 Mg  Mg1  1  -0.00000  0.57499  0.50000  1
 Mg  Mg2  1  0.57499  -0.00000  0.50000  1
 Mg  Mg3  1  0.42501  0.42501  0.50000  1
 Si  Si1  1  0.00000  0.24502  0.23374  1
 Si  Si2  1  0.24502  0.00000  0.23374  1
 Si  Si3  1  0.00000  0.24502  0.76626  1
 Si  Si4  1  0.75498  0.75498  0.76626  1
 Si  Si5  1  0.24502  0.00000  0.76626  1
 Si  Si6  1  0.75498  0.75498  0.23374  1
