CIF file written using JARVIS-Tools package.
data_LiP5
_symmetry_space_group_name_H-M  'Pna2_1'
_cell_length_a       6.63622
_cell_length_b       6.6346
_cell_length_c       10.506
_cell_angle_alpha    90
_cell_angle_beta     90
_cell_angle_gamma    90

_symmetry_Int_Tables_number  33
_chemical_formula_structural  LiP5
_chemical_formula_sum  Li4P20
_cell_volume  462.5667142817402
_cell_formula_units_Z  4
loop_
  _symmetry_equiv_pos_site_id
 _symmetry_equiv_pos_as_xyz
 1  'x, y, z'
loop_
 _atom_site_type_symbol
 _atom_site_label
 _atom_site_symmetry_multiplicity
 _atom_site_fract_x
 _atom_site_fract_y
 _atom_site_fract_z
 _atom_site_fract_occupancy
 Li  Li1  1  0.05101  0.46430  0.92134  1
 Li  Li2  1  0.55101  0.53570  0.07866  1
 Li  Li3  1  0.05101  0.03570  0.42134  1
 Li  Li4  1  0.55101  0.96430  0.57866  1
 P  P1  1  0.42478  0.91397  0.91392  1
 P  P2  1  0.92478  0.08603  0.08608  1
 P  P3  1  0.42478  0.58603  0.41392  1
 P  P4  1  0.92478  0.41397  0.58608  1
 P  P5  1  0.91186  0.90160  0.90653  1
 P  P6  1  0.41186  0.09840  0.09347  1
 P  P7  1  0.91186  0.59840  0.40653  1
 P  P8  1  0.18570  0.89359  0.62755  1
 P  P9  1  0.41186  0.40160  0.59347  1
 P  P10  1  0.16811  0.57901  0.69427  1
 P  P11  1  0.16811  0.92099  0.19427  1
 P  P12  1  0.66811  0.42099  0.30573  1
 P  P13  1  0.16753  0.43888  0.30843  1
 P  P14  1  0.66753  0.56112  0.69157  1
 P  P15  1  0.16753  0.06112  0.80843  1
 P  P16  1  0.66753  0.93888  0.19157  1
 P  P17  1  0.18570  0.60641  0.12755  1
 P  P18  1  0.68570  0.39359  0.87245  1
 P  P19  1  0.66811  0.07901  0.80573  1
 P  P20  1  0.68570  0.10641  0.37245  1
