CIF file written using JARVIS-Tools package.
data_Li3AlH6
_symmetry_space_group_name_H-M  'R-3'
_cell_length_a       5.58996
_cell_length_b       5.58995
_cell_length_c       5.58995
_cell_angle_alpha    91.4972
_cell_angle_beta     91.4972
_cell_angle_gamma    91.4971

_symmetry_Int_Tables_number  148
_chemical_formula_structural  Li3AlH6
_chemical_formula_sum  Li6Al2H2
_cell_volume  174.49083092002044
_cell_formula_units_Z  2
loop_
  _symmetry_equiv_pos_site_id
 _symmetry_equiv_pos_as_xyz
 1  'x, y, z'
loop_
 _atom_site_type_symbol
 _atom_site_label
 _atom_site_symmetry_multiplicity
 _atom_site_fract_x
 _atom_site_fract_y
 _atom_site_fract_z
 _atom_site_fract_occupancy
 Al  Al1  1  0.00000  0.00000  0.00000  1
 Al  Al2  1  0.50000  0.50000  0.50000  1
 H  H1  1  0.29584  0.09064  0.95099  1
 H  H2  1  0.90936  0.04901  0.70416  1
 H  H3  1  0.20374  0.42710  0.56802  1
 H  H4  1  0.56802  0.20374  0.42710  1
 H  H5  1  0.42710  0.56802  0.20374  1
 H  H6  1  0.79626  0.57290  0.43198  1
 H  H7  1  0.43198  0.79626  0.57290  1
 H  H8  1  0.57290  0.43198  0.79626  1
 H  H9  1  0.95099  0.29584  0.09064  1
 H  H10  1  0.70416  0.90936  0.04901  1
 H  H11  1  0.04901  0.70416  0.90936  1
 H  H12  1  0.09064  0.95099  0.29584  1
 Li  Li1  1  0.74850  0.56607  0.05940  1
 Li  Li2  1  0.05940  0.74850  0.56607  1
 Li  Li3  1  0.25150  0.43393  0.94060  1
 Li  Li4  1  0.94060  0.25150  0.43393  1
 Li  Li5  1  0.56607  0.05940  0.74850  1
 Li  Li6  1  0.43393  0.94060  0.25150  1
