CIF file written using JARVIS-Tools package.
data_LiCo6O7
_symmetry_space_group_name_H-M  'R-3'
_cell_length_a       5.10301
_cell_length_b       5.09915
_cell_length_c       5.10485
_cell_angle_alpha    99.5618
_cell_angle_beta     99.6329
_cell_angle_gamma    99.6257

_symmetry_Int_Tables_number  148
_chemical_formula_structural  LiCo6O7
_chemical_formula_sum  LiCo6O7
_cell_volume  126.5161353076194
_cell_formula_units_Z  1
loop_
  _symmetry_equiv_pos_site_id
 _symmetry_equiv_pos_as_xyz
 1  'x, y, z'
loop_
 _atom_site_type_symbol
 _atom_site_label
 _atom_site_symmetry_multiplicity
 _atom_site_fract_x
 _atom_site_fract_y
 _atom_site_fract_z
 _atom_site_fract_occupancy
 Co  Co1  1  0.27876  0.57196  0.13777  1
 Co  Co2  1  0.13764  0.27802  0.57150  1
 Co  Co3  1  0.42785  0.86200  0.72168  1
 Co  Co4  1  0.57215  0.13800  0.27834  1
 Co  Co5  1  0.72122  0.42803  0.86223  1
 Co  Co6  1  0.86236  0.72198  0.42849  1
 Li  Li1  1  0.00000  -0.00000  -0.00000  1
 O  O1  1  0.07340  0.64253  0.77822  1
 O  O2  1  0.50000  0.50000  0.50000  1
 O  O3  1  0.22203  0.92634  0.35699  1
 O  O4  1  0.92659  0.35747  0.22177  1
 O  O5  1  0.35686  0.22173  0.92633  1
 O  O6  1  0.64314  0.77827  0.07368  1
 O  O7  1  0.77798  0.07366  0.64300  1
