CIF file written using JARVIS-Tools package.
data_YVW2O8
_symmetry_space_group_name_H-M  'P-1'
_cell_length_a       5.04076
_cell_length_b       5.63023
_cell_length_c       5.91369
_cell_angle_alpha    106.541
_cell_angle_beta     92.5352
_cell_angle_gamma    108.362

_symmetry_Int_Tables_number  2
_chemical_formula_structural  YVW2O8
_chemical_formula_sum  YVW2O8
_cell_volume  151.03342277176864
_cell_formula_units_Z  1
loop_
  _symmetry_equiv_pos_site_id
 _symmetry_equiv_pos_as_xyz
 1  'x, y, z'
loop_
 _atom_site_type_symbol
 _atom_site_label
 _atom_site_symmetry_multiplicity
 _atom_site_fract_x
 _atom_site_fract_y
 _atom_site_fract_z
 _atom_site_fract_occupancy
 O  O1  1  0.68769  0.80729  0.66956  1
 O  O2  1  0.76230  0.30560  0.48936  1
 O  O3  1  0.61965  0.79149  0.17990  1
 O  O4  1  0.83637  0.36807  0.05903  1
 O  O5  1  0.18797  0.89415  0.95776  1
 O  O6  1  0.26097  0.39160  0.77653  1
 O  O7  1  0.33067  0.40846  0.26556  1
 O  O8  1  0.11351  0.83107  0.38790  1
 V  V1  1  0.97506  0.09928  0.22285  1
 W  W1  1  0.72780  0.58552  0.39553  1
 W  W2  1  0.22278  0.61372  0.05114  1
 Y  Y1  1  0.47532  0.09985  0.72338  1
