CIF file written using JARVIS-Tools package.
data_K2NaAg3C6N6
_symmetry_space_group_name_H-M  'P-31m'
_cell_length_a       6.80604
_cell_length_b       6.80605
_cell_length_c       8.76474
_cell_angle_alpha    90.0219
_cell_angle_beta     90.0219
_cell_angle_gamma    119.992

_symmetry_Int_Tables_number  162
_chemical_formula_structural  K2NaAg3C6N6
_chemical_formula_sum  K2NaAg3C6N6
_cell_volume  351.6347981826003
_cell_formula_units_Z  1
loop_
  _symmetry_equiv_pos_site_id
 _symmetry_equiv_pos_as_xyz
 1  'x, y, z'
loop_
 _atom_site_type_symbol
 _atom_site_label
 _atom_site_symmetry_multiplicity
 _atom_site_fract_x
 _atom_site_fract_y
 _atom_site_fract_z
 _atom_site_fract_occupancy
 Ag  Ag1  1  0.50000  0.50000  0.00000  1
 Ag  Ag2  1  -0.00000  0.50000  0.00000  1
 Ag  Ag3  1  0.50000  0.00000  0.00000  1
 C  C1  1  0.00013  0.63593  0.79200  1
 C  C2  1  0.36437  0.36437  0.79182  1
 C  C3  1  0.63563  0.63563  0.20818  1
 C  C4  1  0.63593  0.00013  0.79200  1
 C  C5  1  0.36407  0.99987  0.20800  1
 C  C6  1  0.99987  0.36407  0.20800  1
 K  K1  1  0.66672  0.33328  0.50000  1
 K  K2  1  0.33328  0.66672  0.50000  1
 N  N1  1  0.99981  0.29466  0.33023  1
 N  N2  1  0.29466  0.99981  0.33023  1
 N  N3  1  0.29505  0.29505  0.66951  1
 N  N4  1  0.00019  0.70534  0.66977  1
 N  N5  1  0.70534  0.00019  0.66977  1
 N  N6  1  0.70495  0.70495  0.33049  1
 Na  Na1  1  -0.00000  0.00000  0.50000  1
