CIF file written using JARVIS-Tools package.
data_Nd3GaO6
_symmetry_space_group_name_H-M  'Cmc2_1'
_cell_length_a       5.63253
_cell_length_b       7.4169
_cell_length_c       7.4169
_cell_angle_alpha    102.794
_cell_angle_beta     90
_cell_angle_gamma    90

_symmetry_Int_Tables_number  36
_chemical_formula_structural  Nd3GaO6
_chemical_formula_sum  Nd6Ga2O2
_cell_volume  302.1557660832053
_cell_formula_units_Z  2
loop_
  _symmetry_equiv_pos_site_id
 _symmetry_equiv_pos_as_xyz
 1  'x, y, z'
loop_
 _atom_site_type_symbol
 _atom_site_label
 _atom_site_symmetry_multiplicity
 _atom_site_fract_x
 _atom_site_fract_y
 _atom_site_fract_z
 _atom_site_fract_occupancy
 Ga  Ga1  1  0.99829  0.19177  0.80823  1
 Ga  Ga2  1  0.49829  0.80823  0.19177  1
 Nd  Nd1  1  0.53116  0.29876  0.08680  1
 Nd  Nd2  1  0.53116  0.91320  0.70124  1
 Nd  Nd3  1  0.03116  0.08680  0.29876  1
 Nd  Nd4  1  0.57518  0.39595  0.60405  1
 Nd  Nd5  1  0.07518  0.60405  0.39595  1
 Nd  Nd6  1  0.03116  0.70124  0.91320  1
 O  O1  1  0.32553  0.21564  0.78436  1
 O  O2  1  0.36582  0.95907  0.04093  1
 O  O3  1  0.86582  0.04093  0.95907  1
 O  O4  1  0.30151  0.32707  0.35417  1
 O  O5  1  0.80151  0.67293  0.64583  1
 O  O6  1  0.82901  0.10573  0.58477  1
 O  O7  1  0.80151  0.35417  0.32707  1
 O  O8  1  0.82553  0.78436  0.21564  1
 O  O9  1  0.82901  0.41523  0.89427  1
 O  O10  1  0.32901  0.89427  0.41523  1
 O  O11  1  0.30151  0.64583  0.67293  1
 O  O12  1  0.32901  0.58477  0.10573  1
