CIF file written using JARVIS-Tools package.
data_Ba3H12Ir2
_symmetry_space_group_name_H-M  'P-3m1'
_cell_length_a       5.48909
_cell_length_b       5.48909
_cell_length_c       8.87896
_cell_angle_alpha    90
_cell_angle_beta     90
_cell_angle_gamma    120

_symmetry_Int_Tables_number  164
_chemical_formula_structural  Ba3H12Ir2
_chemical_formula_sum  Ba3H2Ir2
_cell_volume  231.68210986081132
_cell_formula_units_Z  1
loop_
  _symmetry_equiv_pos_site_id
 _symmetry_equiv_pos_as_xyz
 1  'x, y, z'
loop_
 _atom_site_type_symbol
 _atom_site_label
 _atom_site_symmetry_multiplicity
 _atom_site_fract_x
 _atom_site_fract_y
 _atom_site_fract_z
 _atom_site_fract_occupancy
 Ba  Ba1  1  0.00000  0.00000  0.00000  1
 Ba  Ba2  1  0.66667  0.33333  0.64045  1
 Ba  Ba3  1  0.33333  0.66667  0.35955  1
 H  H1  1  0.63099  0.81549  0.65226  1
 H  H2  1  0.18451  0.81549  0.65226  1
 H  H3  1  0.18451  0.36901  0.65226  1
 H  H4  1  0.36901  0.18451  0.34774  1
 H  H5  1  0.81549  0.18451  0.34774  1
 H  H6  1  0.81549  0.63099  0.34774  1
 H  H7  1  0.52527  0.05054  0.12592  1
 H  H8  1  0.94946  0.47473  0.12592  1
 H  H9  1  0.52527  0.47473  0.12592  1
 H  H10  1  0.47473  0.94946  0.87408  1
 H  H11  1  0.05054  0.52527  0.87408  1
 H  H12  1  0.47473  0.52527  0.87408  1
 Ir  Ir1  1  0.66667  0.33333  0.23959  1
 Ir  Ir2  1  0.33333  0.66667  0.76041  1
