CIF file written using JARVIS-Tools package.
data_NaMnPO4
_symmetry_space_group_name_H-M  'Pnma'
_cell_length_a       5.1109
_cell_length_b       6.8973
_cell_length_c       9.1542
_cell_angle_alpha    90
_cell_angle_beta     90
_cell_angle_gamma    90

_symmetry_Int_Tables_number  62
_chemical_formula_structural  NaMnPO4
_chemical_formula_sum  Na4Mn4P4O6
_cell_volume  322.69808647067583
_cell_formula_units_Z  4
loop_
  _symmetry_equiv_pos_site_id
 _symmetry_equiv_pos_as_xyz
 1  'x, y, z'
loop_
 _atom_site_type_symbol
 _atom_site_label
 _atom_site_symmetry_multiplicity
 _atom_site_fract_x
 _atom_site_fract_y
 _atom_site_fract_z
 _atom_site_fract_occupancy
 Mn  Mn1  1  0.50000  0.50000  0.50000  1
 Mn  Mn2  1  0.00000  0.50000  0.00000  1
 Mn  Mn3  1  0.50000  0.00000  0.50000  1
 Mn  Mn4  1  0.00000  0.00000  0.00000  1
 Na  Na1  1  0.02539  0.25000  0.64843  1
 Na  Na2  1  0.52539  0.75000  0.85157  1
 Na  Na3  1  0.97461  0.75000  0.35157  1
 Na  Na4  1  0.47461  0.25000  0.14843  1
 O  O1  1  0.54665  0.25000  0.65238  1
 O  O2  1  0.32824  0.93286  0.12026  1
 O  O3  1  0.82824  0.06714  0.37974  1
 O  O4  1  0.04665  0.75000  0.84762  1
 O  O5  1  0.95335  0.25000  0.15238  1
 O  O6  1  0.24053  0.25000  0.87867  1
 O  O7  1  0.67176  0.43286  0.87974  1
 O  O8  1  0.45335  0.75000  0.34762  1
 O  O9  1  0.17176  0.93286  0.62026  1
 O  O10  1  0.75947  0.75000  0.12133  1
 O  O11  1  0.82824  0.43286  0.37974  1
 O  O12  1  0.32824  0.56714  0.12026  1
 O  O13  1  0.17176  0.56714  0.62026  1
 O  O14  1  0.25947  0.25000  0.37867  1
 O  O15  1  0.67176  0.06714  0.87974  1
 O  O16  1  0.74053  0.75000  0.62133  1
 P  P1  1  0.02958  0.75000  0.67607  1
 P  P2  1  0.52958  0.25000  0.82393  1
 P  P3  1  0.97042  0.25000  0.32393  1
 P  P4  1  0.47042  0.75000  0.17607  1
