CIF file written using JARVIS-Tools package.
data_Al2PbO4
_symmetry_space_group_name_H-M  'Ama2'
_cell_length_a       5.14145
_cell_length_b       5.30219
_cell_length_c       8.52985
_cell_angle_alpha    90
_cell_angle_beta     90
_cell_angle_gamma    119.002

_symmetry_Int_Tables_number  40
_chemical_formula_structural  Al2PbO4
_chemical_formula_sum  Al4Pb2O8
_cell_volume  203.37232979343517
_cell_formula_units_Z  2
loop_
  _symmetry_equiv_pos_site_id
 _symmetry_equiv_pos_as_xyz
 1  'x, y, z'
loop_
 _atom_site_type_symbol
 _atom_site_label
 _atom_site_symmetry_multiplicity
 _atom_site_fract_x
 _atom_site_fract_y
 _atom_site_fract_z
 _atom_site_fract_occupancy
 Al  Al1  1  0.64030  0.34453  0.44582  1
 Al  Al2  1  0.29577  0.65547  0.55418  1
 Al  Al3  1  0.64030  0.34453  0.05418  1
 Al  Al4  1  0.29577  0.65547  0.94582  1
 O  O1  1  0.53840  0.37557  0.25000  1
 O  O2  1  0.16283  0.62443  0.75000  1
 O  O3  1  0.35426  -0.00000  0.50000  1
 O  O4  1  0.35426  -0.00000  0.00000  1
 O  O5  1  0.00080  0.37846  0.44541  1
 O  O6  1  0.62233  0.62154  0.55459  1
 O  O7  1  0.62233  0.62154  0.94541  1
 O  O8  1  0.00080  0.37846  0.05459  1
 Pb  Pb1  1  0.02803  0.05421  0.25000  1
 Pb  Pb2  1  0.97382  0.94579  0.75000  1
