CIF file written using JARVIS-Tools package.
data_TaVO5
_symmetry_space_group_name_H-M  'Pnma'
_cell_length_a       5.59793
_cell_length_b       7.02585
_cell_length_c       12.0064
_cell_angle_alpha    90
_cell_angle_beta     90
_cell_angle_gamma    90

_symmetry_Int_Tables_number  62
_chemical_formula_structural  TaVO5
_chemical_formula_sum  Ta4V4O20
_cell_volume  472.21416714801506
_cell_formula_units_Z  4
loop_
  _symmetry_equiv_pos_site_id
 _symmetry_equiv_pos_as_xyz
 1  'x, y, z'
loop_
 _atom_site_type_symbol
 _atom_site_label
 _atom_site_symmetry_multiplicity
 _atom_site_fract_x
 _atom_site_fract_y
 _atom_site_fract_z
 _atom_site_fract_occupancy
 O  O1  1  -0.00084  0.84198  0.87671  1
 O  O2  1  0.25000  0.17915  0.92176  1
 O  O3  1  0.75000  0.82085  0.07824  1
 O  O4  1  0.75000  0.67915  0.57824  1
 O  O5  1  0.25000  0.32085  0.42176  1
 O  O6  1  0.25000  0.02554  0.70350  1
 O  O7  1  0.00084  0.34198  0.62329  1
 O  O8  1  0.75000  0.52554  0.79650  1
 O  O9  1  0.25000  0.47446  0.20350  1
 O  O10  1  0.75000  0.97446  0.29650  1
 O  O11  1  0.50000  0.50000  0.00000  1
 O  O12  1  0.50084  0.65802  0.37671  1
 O  O13  1  0.00000  0.00000  0.50000  1
 O  O14  1  -0.00084  0.65802  0.37671  1
 O  O15  1  0.49916  0.34198  0.62329  1
 O  O16  1  0.49916  0.15802  0.12329  1
 O  O17  1  0.50084  0.84198  0.87671  1
 O  O18  1  0.00084  0.15802  0.12329  1
 O  O19  1  0.50000  0.00000  0.50000  1
 O  O20  1  0.00000  0.50000  0.00000  1
 Ta  Ta1  1  0.25000  0.34235  0.05827  1
 Ta  Ta2  1  0.75000  0.65765  0.94173  1
 Ta  Ta3  1  0.75000  0.84235  0.44173  1
 Ta  Ta4  1  0.25000  0.15765  0.55827  1
 V  V1  1  0.25000  0.52967  0.34501  1
 V  V2  1  0.75000  0.47033  0.65499  1
 V  V3  1  0.75000  0.02967  0.15499  1
 V  V4  1  0.25000  0.97033  0.84501  1
