CIF file written using JARVIS-Tools package.
data_Hg2Mo2O7
_symmetry_space_group_name_H-M  'P2/c'
_cell_length_a       6.09241
_cell_length_b       3.96549
_cell_length_c       14.5263
_cell_angle_alpha    90
_cell_angle_beta     104.702
_cell_angle_gamma    90

_symmetry_Int_Tables_number  13
_chemical_formula_structural  Hg2Mo2O7
_chemical_formula_sum  Hg4Mo4O4
_cell_volume  339.4572317105242
_cell_formula_units_Z  2
loop_
  _symmetry_equiv_pos_site_id
 _symmetry_equiv_pos_as_xyz
 1  'x, y, z'
loop_
 _atom_site_type_symbol
 _atom_site_label
 _atom_site_symmetry_multiplicity
 _atom_site_fract_x
 _atom_site_fract_y
 _atom_site_fract_z
 _atom_site_fract_occupancy
 Hg  Hg1  1  0.35293  0.66142  0.93580  1
 Hg  Hg2  1  0.64707  0.66142  0.56420  1
 Hg  Hg3  1  0.64707  0.33858  0.06420  1
 Hg  Hg4  1  0.35293  0.33858  0.43580  1
 Mo  Mo1  1  0.18944  0.03428  0.68457  1
 Mo  Mo2  1  0.81056  0.03428  0.81543  1
 Mo  Mo3  1  0.81056  0.96572  0.31543  1
 Mo  Mo4  1  0.18944  0.96572  0.18457  1
 O  O1  1  0.50000  0.96342  0.75000  1
 O  O2  1  0.50000  0.03658  0.25000  1
 O  O3  1  0.20437  0.02453  0.06881  1
 O  O4  1  0.81006  0.47581  0.80358  1
 O  O5  1  0.81006  0.52419  0.30358  1
 O  O6  1  0.18994  0.47581  0.69642  1
 O  O7  1  0.86546  0.02774  0.16867  1
 O  O8  1  0.79563  0.97547  0.93119  1
 O  O9  1  0.13454  0.02774  0.33133  1
 O  O10  1  0.18994  0.52419  0.19642  1
 O  O11  1  0.86546  0.97226  0.66867  1
 O  O12  1  0.79563  0.02453  0.43119  1
 O  O13  1  0.20437  0.97547  0.56881  1
 O  O14  1  0.13454  0.97226  0.83133  1
