CIF file written using JARVIS-Tools package.
data_RbIn5S8
_symmetry_space_group_name_H-M  'C2/m'
_cell_length_a       3.911
_cell_length_b       9.33748
_cell_length_c       9.78669
_cell_angle_alpha    101.971
_cell_angle_beta     101.526
_cell_angle_gamma    90

_symmetry_Int_Tables_number  12
_chemical_formula_structural  RbIn5S8
_chemical_formula_sum  RbIn5S8
_cell_volume  342.2561023731224
_cell_formula_units_Z  1
loop_
  _symmetry_equiv_pos_site_id
 _symmetry_equiv_pos_as_xyz
 1  'x, y, z'
loop_
 _atom_site_type_symbol
 _atom_site_label
 _atom_site_symmetry_multiplicity
 _atom_site_fract_x
 _atom_site_fract_y
 _atom_site_fract_z
 _atom_site_fract_occupancy
 In  In1  1  0.71209  0.33917  0.42417  1
 In  In2  1  0.64658  0.91425  0.29316  1
 In  In3  1  0.35342  0.08575  0.70684  1
 In  In4  1  0.28791  0.66083  0.57583  1
 In  In5  1  0.00000  0.00000  0.00000  1
 Rb  Rb1  1  0.50000  0.50000  -0.00000  1
 S  S1  1  0.83577  0.51975  0.67154  1
 S  S2  1  0.92805  0.21191  0.85611  1
 S  S3  1  0.07195  0.78809  0.14389  1
 S  S4  1  0.58414  0.12942  0.16827  1
 S  S5  1  0.41586  0.87058  0.83173  1
 S  S6  1  0.76396  0.84726  0.52791  1
 S  S7  1  0.23604  0.15274  0.47209  1
 S  S8  1  0.16423  0.48025  0.32846  1
