CIF file written using JARVIS-Tools package.
data_VCrO4
_symmetry_space_group_name_H-M  'C2/m'
_cell_length_a       6.61889
_cell_length_b       6.6189
_cell_length_c       6.85802
_cell_angle_alpha    76.9392
_cell_angle_beta     76.9392
_cell_angle_gamma    84.08

_symmetry_Int_Tables_number  12
_chemical_formula_structural  VCrO4
_chemical_formula_sum  V4Cr4O6
_cell_volume  284.6756653496472
_cell_formula_units_Z  4
loop_
  _symmetry_equiv_pos_site_id
 _symmetry_equiv_pos_as_xyz
 1  'x, y, z'
loop_
 _atom_site_type_symbol
 _atom_site_label
 _atom_site_symmetry_multiplicity
 _atom_site_fract_x
 _atom_site_fract_y
 _atom_site_fract_z
 _atom_site_fract_occupancy
 Cr  Cr1  1  0.18033  0.81967  0.50000  1
 Cr  Cr2  1  0.79743  0.79743  0.85710  1
 Cr  Cr3  1  0.20257  0.20257  0.14290  1
 Cr  Cr4  1  0.81967  0.18033  0.50000  1
 O  O1  1  0.79382  0.50232  0.88817  1
 O  O2  1  0.47160  0.79695  0.47262  1
 O  O3  1  0.79695  0.47160  0.47262  1
 O  O4  1  0.52840  0.20305  0.52738  1
 O  O5  1  0.10723  0.80240  0.79676  1
 O  O6  1  0.19760  0.89277  0.20324  1
 O  O7  1  0.89277  0.19760  0.20324  1
 O  O8  1  0.80240  0.10723  0.79676  1
 O  O9  1  0.86113  0.86113  0.54176  1
 O  O10  1  0.79425  0.79425  0.13526  1
 O  O11  1  0.20305  0.52840  0.52738  1
 O  O12  1  0.20576  0.20575  0.86474  1
 O  O13  1  0.20618  0.49768  0.11183  1
 O  O14  1  0.49768  0.20618  0.11183  1
 O  O15  1  0.50232  0.79382  0.88817  1
 O  O16  1  0.13887  0.13887  0.45824  1
 V  V1  1  0.72657  0.72657  0.39787  1
 V  V2  1  0.27343  0.27343  0.60213  1
 V  V3  1  0.74905  0.25095  -0.00000  1
 V  V4  1  0.25095  0.74905  0.00000  1
