CIF file written using JARVIS-Tools package.
data_V2Zn2O7
_symmetry_space_group_name_H-M  'C2/c'
_cell_length_a       5.60716
_cell_length_b       5.60716
_cell_length_c       10.1635
_cell_angle_alpha    103.831
_cell_angle_beta     103.831
_cell_angle_gamma    96.7866

_symmetry_Int_Tables_number  15
_chemical_formula_structural  V2Zn2O7
_chemical_formula_sum  V4Zn4O4
_cell_volume  296.0270398701594
_cell_formula_units_Z  2
loop_
  _symmetry_equiv_pos_site_id
 _symmetry_equiv_pos_as_xyz
 1  'x, y, z'
loop_
 _atom_site_type_symbol
 _atom_site_label
 _atom_site_symmetry_multiplicity
 _atom_site_fract_x
 _atom_site_fract_y
 _atom_site_fract_z
 _atom_site_fract_occupancy
 O  O1  1  0.42229  0.37924  0.86134  1
 O  O2  1  0.98787  0.32318  0.11029  1
 O  O3  1  0.32318  0.98787  0.61029  1
 O  O4  1  0.01213  0.67682  0.88971  1
 O  O5  1  0.90988  0.59799  0.39374  1
 O  O6  1  0.40201  0.09012  0.10626  1
 O  O7  1  0.09012  0.40201  0.60626  1
 O  O8  1  0.59799  0.90988  0.89374  1
 O  O9  1  0.94669  0.05331  0.75000  1
 O  O10  1  0.67682  0.01213  0.38971  1
 O  O11  1  0.62076  0.57771  0.63866  1
 O  O12  1  0.37924  0.42229  0.36134  1
 O  O13  1  0.57771  0.62076  0.13866  1
 O  O14  1  0.05331  0.94669  0.25000  1
 V  V1  1  0.79833  0.79368  0.29466  1
 V  V2  1  0.20632  0.20167  0.20534  1
 V  V3  1  0.20167  0.20632  0.70534  1
 V  V4  1  0.79368  0.79833  0.79466  1
 Zn  Zn1  1  0.62999  0.27491  0.01902  1
 Zn  Zn2  1  0.37001  0.72509  0.98098  1
 Zn  Zn3  1  0.27491  0.62999  0.51902  1
 Zn  Zn4  1  0.72509  0.37001  0.48098  1
