CIF file written using JARVIS-Tools package.
data_LuB4Os
_symmetry_space_group_name_H-M  'Pbam'
_cell_length_a       3.56181
_cell_length_b       5.90809
_cell_length_c       11.424
_cell_angle_alpha    90
_cell_angle_beta     90
_cell_angle_gamma    90

_symmetry_Int_Tables_number  55
_chemical_formula_structural  LuB4Os
_chemical_formula_sum  Lu4B6Os4
_cell_volume  240.4005140503386
_cell_formula_units_Z  4
loop_
  _symmetry_equiv_pos_site_id
 _symmetry_equiv_pos_as_xyz
 1  'x, y, z'
loop_
 _atom_site_type_symbol
 _atom_site_label
 _atom_site_symmetry_multiplicity
 _atom_site_fract_x
 _atom_site_fract_y
 _atom_site_fract_z
 _atom_site_fract_occupancy
 B  B1  1  0.50000  0.36529  0.47076  1
 B  B2  1  0.50000  0.47574  0.19262  1
 B  B3  1  0.50000  0.52426  0.80738  1
 B  B4  1  0.50000  0.97574  0.30738  1
 B  B5  1  0.50000  0.11332  0.54760  1
 B  B6  1  0.50000  0.88668  0.45240  1
 B  B7  1  0.50000  0.61332  0.95240  1
 B  B8  1  0.50000  0.38668  0.04760  1
 B  B9  1  0.50000  0.13471  0.97076  1
 B  B10  1  0.50000  0.86529  0.02924  1
 B  B11  1  0.50000  0.63471  0.52924  1
 B  B12  1  0.50000  0.02426  0.69262  1
 B  B13  1  0.50000  0.20703  0.81363  1
 B  B14  1  0.50000  0.79297  0.18637  1
 B  B15  1  0.50000  0.70703  0.68637  1
 B  B16  1  0.50000  0.29297  0.31363  1
 Lu  Lu1  1  0.00000  0.12925  0.14996  1
 Lu  Lu2  1  0.00000  0.37075  0.64996  1
 Lu  Lu3  1  0.00000  0.62925  0.35004  1
 Lu  Lu4  1  0.00000  0.87075  0.85004  1
 Os  Os1  1  0.00000  0.14375  0.40514  1
 Os  Os2  1  0.00000  0.85625  0.59486  1
 Os  Os3  1  0.00000  0.64375  0.09486  1
 Os  Os4  1  0.00000  0.35625  0.90514  1
