CIF file written using JARVIS-Tools package.
data_SrH2
_symmetry_space_group_name_H-M  'Pnma'
_cell_length_a       3.83576
_cell_length_b       6.34044
_cell_length_c       7.31216
_cell_angle_alpha    90
_cell_angle_beta     90
_cell_angle_gamma    90

_symmetry_Int_Tables_number  62
_chemical_formula_structural  SrH2
_chemical_formula_sum  Sr4H8
_cell_volume  177.83472721170784
_cell_formula_units_Z  4
loop_
  _symmetry_equiv_pos_site_id
 _symmetry_equiv_pos_as_xyz
 1  'x, y, z'
loop_
 _atom_site_type_symbol
 _atom_site_label
 _atom_site_symmetry_multiplicity
 _atom_site_fract_x
 _atom_site_fract_y
 _atom_site_fract_z
 _atom_site_fract_occupancy
 H  H1  1  0.25000  0.52751  0.67741  1
 H  H2  1  0.75000  0.47249  0.32259  1
 H  H3  1  0.25000  0.02751  0.82259  1
 H  H4  1  0.75000  0.97249  0.17741  1
 H  H5  1  0.75000  0.35509  0.92824  1
 H  H6  1  0.25000  0.64491  0.07176  1
 H  H7  1  0.75000  0.85509  0.57176  1
 H  H8  1  0.25000  0.14491  0.42824  1
 Sr  Sr1  1  0.25000  0.76014  0.38754  1
 Sr  Sr2  1  0.75000  0.23986  0.61246  1
 Sr  Sr3  1  0.25000  0.26014  0.11246  1
 Sr  Sr4  1  0.75000  0.73986  0.88754  1
