CIF file written using JARVIS-Tools package.
data_ZrSnIr
_symmetry_space_group_name_H-M  'P-62m'
_cell_length_a       7.36296
_cell_length_b       7.36296
_cell_length_c       3.74904
_cell_angle_alpha    90
_cell_angle_beta     90
_cell_angle_gamma    120

_symmetry_Int_Tables_number  189
_chemical_formula_structural  ZrSnIr
_chemical_formula_sum  Zr3Sn3Ir3
_cell_volume  176.01730172077617
_cell_formula_units_Z  3
loop_
  _symmetry_equiv_pos_site_id
 _symmetry_equiv_pos_as_xyz
 1  'x, y, z'
loop_
 _atom_site_type_symbol
 _atom_site_label
 _atom_site_symmetry_multiplicity
 _atom_site_fract_x
 _atom_site_fract_y
 _atom_site_fract_z
 _atom_site_fract_occupancy
 Ir  Ir1  1  0.66667  0.33333  0.00000  1
 Ir  Ir2  1  0.33333  0.66667  0.00000  1
 Ir  Ir3  1  0.00000  0.00000  0.50000  1
 Sn  Sn1  1  -0.00000  0.26755  0.00000  1
 Sn  Sn2  1  0.26755  -0.00000  0.00000  1
 Sn  Sn3  1  0.73245  0.73245  0.00000  1
 Zr  Zr1  1  0.39507  0.39507  0.50000  1
 Zr  Zr2  1  0.60493  0.00000  0.50000  1
 Zr  Zr3  1  0.00000  0.60493  0.50000  1
