CIF file written using JARVIS-Tools package.
data_LiVPO4F
_symmetry_space_group_name_H-M  'P-1'
_cell_length_a       5.17434
_cell_length_b       5.33005
_cell_length_c       7.27106
_cell_angle_alpha    106.69
_cell_angle_beta     108.737
_cell_angle_gamma    98.2176

_symmetry_Int_Tables_number  2
_chemical_formula_structural  LiVPO4F
_chemical_formula_sum  Li2V2P2O8F2
_cell_volume  175.68449872439777
_cell_formula_units_Z  2
loop_
  _symmetry_equiv_pos_site_id
 _symmetry_equiv_pos_as_xyz
 1  'x, y, z'
loop_
 _atom_site_type_symbol
 _atom_site_label
 _atom_site_symmetry_multiplicity
 _atom_site_fract_x
 _atom_site_fract_y
 _atom_site_fract_z
 _atom_site_fract_occupancy
 F  F1  1  0.13464  0.93284  0.26627  1
 F  F2  1  0.86536  0.06716  0.73373  1
 Li  Li1  1  0.26471  0.61683  0.19008  1
 Li  Li2  1  0.73529  0.38317  0.80992  1
 O  O1  1  0.31305  0.33680  0.65962  1
 O  O2  1  0.68695  0.66320  0.34038  1
 O  O3  1  0.37009  0.23961  0.07894  1
 O  O4  1  0.75433  0.22174  0.39577  1
 O  O5  1  0.62991  0.76039  0.92106  1
 O  O6  1  0.24567  0.77826  0.60423  1
 O  O7  1  0.12016  0.65737  0.88608  1
 O  O8  1  0.87984  0.34263  0.11392  1
 P  P1  1  0.32021  0.63774  0.76335  1
 P  P2  1  0.67979  0.36226  0.23665  1
 V  V1  1  0.00000  0.00000  0.00000  1
 V  V2  1  0.00000  -0.00000  0.50000  1
