CIF file written using JARVIS-Tools package.
data_CaSb4O8
_symmetry_space_group_name_H-M  'Cm'
_cell_length_a       3.25089
_cell_length_b       8.12832
_cell_length_c       8.25969
_cell_angle_alpha    104.708
_cell_angle_beta     101.349
_cell_angle_gamma    101.535

_symmetry_Int_Tables_number  8
_chemical_formula_structural  CaSb4O8
_chemical_formula_sum  CaSb4O8
_cell_volume  199.66028261032696
_cell_formula_units_Z  1
loop_
  _symmetry_equiv_pos_site_id
 _symmetry_equiv_pos_as_xyz
 1  'x, y, z'
loop_
 _atom_site_type_symbol
 _atom_site_label
 _atom_site_symmetry_multiplicity
 _atom_site_fract_x
 _atom_site_fract_y
 _atom_site_fract_z
 _atom_site_fract_occupancy
 Ca  Ca1  1  0.52287  0.10628  0.93959  1
 O  O1  1  0.53280  0.64466  0.42107  1
 O  O2  1  0.79445  0.35140  0.23762  1
 O  O3  1  0.16500  0.64280  0.68735  1
 O  O4  1  0.41069  0.30189  0.51963  1
 O  O5  1  0.11337  0.07032  0.15652  1
 O  O6  1  0.13364  0.32595  0.94146  1
 O  O7  1  0.83531  0.94024  0.73054  1
 O  O8  1  0.87936  0.62969  0.12917  1
 Sb  Sb1  1  0.73942  0.13664  0.34232  1
 Sb  Sb2  1  0.62094  0.49935  0.74265  1
 Sb  Sb3  1  0.33570  0.49629  0.17525  1
 Sb  Sb4  1  0.18831  0.83059  0.54619  1
