CIF file written using JARVIS-Tools package.
data_NaLiCO3
_symmetry_space_group_name_H-M  'P-6'
_cell_length_a       8.3245
_cell_length_b       8.3245
_cell_length_c       3.25572
_cell_angle_alpha    90
_cell_angle_beta     90
_cell_angle_gamma    120

_symmetry_Int_Tables_number  174
_chemical_formula_structural  NaLiCO3
_chemical_formula_sum  Na3Li3C3O9
_cell_volume  195.3861960275083
_cell_formula_units_Z  3
loop_
  _symmetry_equiv_pos_site_id
 _symmetry_equiv_pos_as_xyz
 1  'x, y, z'
loop_
 _atom_site_type_symbol
 _atom_site_label
 _atom_site_symmetry_multiplicity
 _atom_site_fract_x
 _atom_site_fract_y
 _atom_site_fract_z
 _atom_site_fract_occupancy
 C  C1  1  0.00000  0.00000  0.00000  1
 C  C2  1  0.66667  0.33333  0.50000  1
 C  C3  1  0.33333  0.66667  0.00000  1
 Li  Li1  1  0.38018  0.34030  0.00000  1
 Li  Li2  1  0.96012  0.61982  0.00000  1
 Li  Li3  1  0.65970  0.03988  0.00000  1
 Na  Na1  1  0.03850  0.32376  0.50000  1
 Na  Na2  1  0.67624  0.71473  0.50000  1
 Na  Na3  1  0.28527  0.96150  0.50000  1
 O  O1  1  0.61630  0.15800  0.50000  1
 O  O2  1  0.54170  0.38370  0.50000  1
 O  O3  1  0.26521  0.48854  0.00000  1
 O  O4  1  0.51146  0.77667  0.00000  1
 O  O5  1  0.22333  0.73479  0.00000  1
 O  O6  1  0.91181  0.81999  0.00000  1
 O  O7  1  0.18001  0.09182  0.00000  1
 O  O8  1  0.84200  0.45830  0.50000  1
 O  O9  1  0.90818  0.08819  0.00000  1
