CIF file written using JARVIS-Tools package.
data_RbMnBr3
_symmetry_space_group_name_H-M  'P6_3/mmc'
_cell_length_a       7.43035
_cell_length_b       7.43035
_cell_length_c       6.40496
_cell_angle_alpha    90
_cell_angle_beta     90
_cell_angle_gamma    120

_symmetry_Int_Tables_number  194
_chemical_formula_structural  RbMnBr3
_chemical_formula_sum  Rb2Mn2Br6
_cell_volume  306.24287275569856
_cell_formula_units_Z  2
loop_
  _symmetry_equiv_pos_site_id
 _symmetry_equiv_pos_as_xyz
 1  'x, y, z'
loop_
 _atom_site_type_symbol
 _atom_site_label
 _atom_site_symmetry_multiplicity
 _atom_site_fract_x
 _atom_site_fract_y
 _atom_site_fract_z
 _atom_site_fract_occupancy
 Br  Br1  1  0.66697  0.83348  0.25000  1
 Br  Br2  1  0.83348  0.66697  0.75000  1
 Br  Br3  1  0.83348  0.16652  0.75000  1
 Br  Br4  1  0.16652  0.83348  0.25000  1
 Br  Br5  1  0.16652  0.33303  0.25000  1
 Br  Br6  1  0.33303  0.16652  0.75000  1
 Mn  Mn1  1  0.00000  0.00000  0.00000  1
 Mn  Mn2  1  0.00000  0.00000  0.50000  1
 Rb  Rb1  1  0.33333  0.66667  0.75000  1
 Rb  Rb2  1  0.66667  0.33333  0.25000  1
