CIF file written using JARVIS-Tools package.
data_Fe3Si2O8
_symmetry_space_group_name_H-M  'P2_1/c'
_cell_length_a       5.89511
_cell_length_b       4.83338
_cell_length_c       10.2405
_cell_angle_alpha    90
_cell_angle_beta     91.9289
_cell_angle_gamma    90

_symmetry_Int_Tables_number  14
_chemical_formula_structural  Fe3Si2O8
_chemical_formula_sum  Fe6Si4O6
_cell_volume  291.6209541885082
_cell_formula_units_Z  2
loop_
  _symmetry_equiv_pos_site_id
 _symmetry_equiv_pos_as_xyz
 1  'x, y, z'
loop_
 _atom_site_type_symbol
 _atom_site_label
 _atom_site_symmetry_multiplicity
 _atom_site_fract_x
 _atom_site_fract_y
 _atom_site_fract_z
 _atom_site_fract_occupancy
 Fe  Fe1  1  0.26640  0.01039  0.72796  1
 Fe  Fe2  1  0.73360  0.51039  0.77204  1
 Fe  Fe3  1  0.26640  0.48961  0.22796  1
 Fe  Fe4  1  0.73360  0.98961  0.27204  1
 Fe  Fe5  1  -0.00000  0.50000  0.50000  1
 Fe  Fe6  1  0.00000  0.00000  0.00000  1
 O  O1  1  0.02239  0.72960  0.83590  1
 O  O2  1  0.97761  0.22960  0.66410  1
 O  O3  1  0.76848  0.77392  0.09956  1
 O  O4  1  0.02239  0.77040  0.33590  1
 O  O5  1  0.54774  0.19364  0.67821  1
 O  O6  1  0.45226  0.69364  0.82179  1
 O  O7  1  0.97761  0.27040  0.16410  1
 O  O8  1  0.54774  0.30636  0.17821  1
 O  O9  1  0.23152  0.22608  0.90044  1
 O  O10  1  0.76172  0.31037  0.94420  1
 O  O11  1  0.76172  0.18963  0.44420  1
 O  O12  1  0.45226  0.80636  0.32179  1
 O  O13  1  0.23152  0.27392  0.40044  1
 O  O14  1  0.76848  0.72608  0.59956  1
 O  O15  1  0.23828  0.68963  0.05580  1
 O  O16  1  0.23828  0.81037  0.55580  1
 Si  Si1  1  0.75427  0.06266  0.59330  1
 Si  Si2  1  0.24573  0.56266  0.90670  1
 Si  Si3  1  0.75427  0.43734  0.09330  1
 Si  Si4  1  0.24573  0.93734  0.40670  1
