CIF file written using JARVIS-Tools package.
data_SnPbF4
_symmetry_space_group_name_H-M  'P4/nmm'
_cell_length_a       4.39027
_cell_length_b       4.39027
_cell_length_c       10.1912
_cell_angle_alpha    90
_cell_angle_beta     90
_cell_angle_gamma    90

_symmetry_Int_Tables_number  129
_chemical_formula_structural  SnPbF4
_chemical_formula_sum  Sn2Pb2F8
_cell_volume  196.42894030166576
_cell_formula_units_Z  2
loop_
  _symmetry_equiv_pos_site_id
 _symmetry_equiv_pos_as_xyz
 1  'x, y, z'
loop_
 _atom_site_type_symbol
 _atom_site_label
 _atom_site_symmetry_multiplicity
 _atom_site_fract_x
 _atom_site_fract_y
 _atom_site_fract_z
 _atom_site_fract_occupancy
 F  F1  1  0.50000  0.00000  0.33603  1
 F  F2  1  0.00000  0.50000  0.66397  1
 F  F3  1  0.00000  0.00000  0.50000  1
 F  F4  1  0.50000  0.50000  0.50000  1
 F  F5  1  0.50000  0.50000  0.19159  1
 F  F6  1  0.00000  0.00000  0.19159  1
 F  F7  1  0.00000  0.00000  0.80841  1
 F  F8  1  0.50000  0.50000  0.80841  1
 Pb  Pb1  1  0.50000  0.00000  0.62110  1
 Pb  Pb2  1  0.00000  0.50000  0.37890  1
 Sn  Sn1  1  0.50000  0.00000  0.12878  1
 Sn  Sn2  1  0.00000  0.50000  0.87122  1
