CIF file written using JARVIS-Tools package.
data_SrHfO3
_symmetry_space_group_name_H-M  'Pnma'
_cell_length_a       5.78348
_cell_length_b       5.80885
_cell_length_c       8.18232
_cell_angle_alpha    90
_cell_angle_beta     90
_cell_angle_gamma    90

_symmetry_Int_Tables_number  62
_chemical_formula_structural  SrHfO3
_chemical_formula_sum  Sr4Hf4O2
_cell_volume  274.88798008406224
_cell_formula_units_Z  4
loop_
  _symmetry_equiv_pos_site_id
 _symmetry_equiv_pos_as_xyz
 1  'x, y, z'
loop_
 _atom_site_type_symbol
 _atom_site_label
 _atom_site_symmetry_multiplicity
 _atom_site_fract_x
 _atom_site_fract_y
 _atom_site_fract_z
 _atom_site_fract_occupancy
 Hf  Hf1  1  0.00000  0.00000  0.00000  1
 Hf  Hf2  1  0.50000  0.50000  0.00000  1
 Hf  Hf3  1  0.50000  0.50000  0.50000  1
 Hf  Hf4  1  0.00000  0.00000  0.50000  1
 O  O1  1  0.93113  0.98545  0.25000  1
 O  O2  1  0.21793  0.28198  0.46382  1
 O  O3  1  0.56887  0.48545  0.25000  1
 O  O4  1  0.28207  0.78198  0.03618  1
 O  O5  1  0.78207  0.71802  0.96382  1
 O  O6  1  0.71793  0.21802  0.53618  1
 O  O7  1  0.28207  0.78198  0.46382  1
 O  O8  1  0.06887  0.01455  0.75000  1
 O  O9  1  0.21793  0.28198  0.03618  1
 O  O10  1  0.78207  0.71802  0.53618  1
 O  O11  1  0.43113  0.51455  0.75000  1
 O  O12  1  0.71793  0.21802  0.96382  1
 Sr  Sr1  1  0.99442  0.47398  0.75000  1
 Sr  Sr2  1  0.49442  0.02602  0.25000  1
 Sr  Sr3  1  0.50558  0.97398  0.75000  1
 Sr  Sr4  1  0.00558  0.52602  0.25000  1
