CIF file written using JARVIS-Tools package.
data_Na3SbO4
_symmetry_space_group_name_H-M  'P2/c'
_cell_length_a       5.48983
_cell_length_b       6.6173
_cell_length_c       5.81148
_cell_angle_alpha    90
_cell_angle_beta     109.504
_cell_angle_gamma    90

_symmetry_Int_Tables_number  13
_chemical_formula_structural  Na3SbO4
_chemical_formula_sum  Na6Sb2O8
_cell_volume  199.0042332733035
_cell_formula_units_Z  2
loop_
  _symmetry_equiv_pos_site_id
 _symmetry_equiv_pos_as_xyz
 1  'x, y, z'
loop_
 _atom_site_type_symbol
 _atom_site_label
 _atom_site_symmetry_multiplicity
 _atom_site_fract_x
 _atom_site_fract_y
 _atom_site_fract_z
 _atom_site_fract_occupancy
 Na  Na1  1  0.25000  0.61562  0.00000  1
 Na  Na2  1  0.75000  0.60146  0.50000  1
 Na  Na3  1  0.25000  0.87470  0.50000  1
 Na  Na4  1  0.75000  0.12530  0.50000  1
 Na  Na5  1  0.75000  0.38438  0.00000  1
 Na  Na6  1  0.25000  0.39854  0.50000  1
 O  O1  1  0.03932  0.33534  0.77097  1
 O  O2  1  0.46068  0.33534  0.22903  1
 O  O3  1  0.96068  0.66466  0.22903  1
 O  O4  1  0.53932  0.66466  0.77097  1
 O  O5  1  0.50067  0.09772  0.80146  1
 O  O6  1  0.99933  0.09772  0.19854  1
 O  O7  1  0.00067  0.90228  0.80146  1
 O  O8  1  0.49933  0.90228  0.19854  1
 Sb  Sb1  1  0.25000  0.13271  0.00000  1
 Sb  Sb2  1  0.75000  0.86729  0.00000  1
