CIF file written using JARVIS-Tools package.
data_Ca3TaGa3Si2O14
_symmetry_space_group_name_H-M  'P321'
_cell_length_a       8.16305
_cell_length_b       8.16305
_cell_length_c       5.01709
_cell_angle_alpha    90
_cell_angle_beta     90
_cell_angle_gamma    120

_symmetry_Int_Tables_number  150
_chemical_formula_structural  Ca3TaGa3Si2O14
_chemical_formula_sum  Ca3TaGa3Si2O4
_cell_volume  289.5264411747462
_cell_formula_units_Z  1
loop_
  _symmetry_equiv_pos_site_id
 _symmetry_equiv_pos_as_xyz
 1  'x, y, z'
loop_
 _atom_site_type_symbol
 _atom_site_label
 _atom_site_symmetry_multiplicity
 _atom_site_fract_x
 _atom_site_fract_y
 _atom_site_fract_z
 _atom_site_fract_occupancy
 Ca  Ca1  1  0.57614  -0.00000  0.00000  1
 Ca  Ca2  1  0.42386  0.42386  0.00000  1
 Ca  Ca3  1  -0.00000  0.57614  0.00000  1
 Ga  Ga1  1  0.74498  0.74498  0.50000  1
 Ga  Ga2  1  -0.00000  0.25502  0.50000  1
 Ga  Ga3  1  0.25502  -0.00000  0.50000  1
 O  O1  1  0.77442  0.91654  0.76424  1
 O  O2  1  0.14212  0.22558  0.76424  1
 O  O3  1  0.84547  0.32234  0.69250  1
 O  O4  1  0.22558  0.14212  0.23576  1
 O  O5  1  0.85788  0.08346  0.23576  1
 O  O6  1  0.08346  0.85788  0.76424  1
 O  O7  1  0.52313  0.67766  0.30750  1
 O  O8  1  0.33333  0.66667  0.77029  1
 O  O9  1  0.32234  0.84547  0.30750  1
 O  O10  1  0.91654  0.77442  0.23576  1
 O  O11  1  0.66667  0.33333  0.22971  1
 O  O12  1  0.67766  0.52313  0.69250  1
 O  O13  1  0.15453  0.47687  0.30750  1
 O  O14  1  0.47687  0.15453  0.69250  1
 Si  Si1  1  0.66667  0.33333  0.55128  1
 Si  Si2  1  0.33333  0.66667  0.44872  1
 Ta  Ta1  1  0.00000  0.00000  0.00000  1
