CIF file written using JARVIS-Tools package.
data_SiO2
_symmetry_space_group_name_H-M  'Pccn'
_cell_length_a       4.75368
_cell_length_b       8.13382
_cell_length_c       8.65194
_cell_angle_alpha    90
_cell_angle_beta     90
_cell_angle_gamma    90

_symmetry_Int_Tables_number  56
_chemical_formula_structural  SiO2
_chemical_formula_sum  Si8O6
_cell_volume  334.5326059918357
_cell_formula_units_Z  8
loop_
  _symmetry_equiv_pos_site_id
 _symmetry_equiv_pos_as_xyz
 1  'x, y, z'
loop_
 _atom_site_type_symbol
 _atom_site_label
 _atom_site_symmetry_multiplicity
 _atom_site_fract_x
 _atom_site_fract_y
 _atom_site_fract_z
 _atom_site_fract_occupancy
 O  O1  1  0.90574  0.44345  0.79732  1
 O  O2  1  0.59426  0.05655  0.79732  1
 O  O3  1  0.59426  0.44345  0.29732  1
 O  O4  1  0.40574  0.55655  0.70268  1
 O  O5  1  0.00000  0.00000  0.00000  1
 O  O6  1  0.09426  0.55655  0.20268  1
 O  O7  1  0.40574  0.94345  0.20268  1
 O  O8  1  0.25000  0.25000  0.63938  1
 O  O9  1  0.00000  0.50000  0.50000  1
 O  O10  1  0.75000  0.75000  0.36062  1
 O  O11  1  0.75000  0.75000  0.86062  1
 O  O12  1  0.50000  0.00000  0.50000  1
 O  O13  1  0.50000  0.50000  0.00000  1
 O  O14  1  0.25000  0.25000  0.13938  1
 O  O15  1  0.09426  0.94345  0.70268  1
 O  O16  1  0.90574  0.05655  0.29732  1
 Si  Si1  1  0.35922  0.06288  0.65925  1
 Si  Si2  1  0.64078  0.93712  0.34075  1
 Si  Si3  1  0.85922  0.93712  0.84075  1
 Si  Si4  1  0.85922  0.56288  0.34075  1
 Si  Si5  1  0.35922  0.43712  0.15925  1
 Si  Si6  1  0.64078  0.56288  0.84075  1
 Si  Si7  1  0.14078  0.43712  0.65925  1
 Si  Si8  1  0.14078  0.06288  0.15925  1
