CIF file written using JARVIS-Tools package.
data_BaPr2CuO5
_symmetry_space_group_name_H-M  'P4/mbm'
_cell_length_a       6.79862
_cell_length_b       6.79862
_cell_length_c       5.88782
_cell_angle_alpha    90
_cell_angle_beta     90
_cell_angle_gamma    90

_symmetry_Int_Tables_number  127
_chemical_formula_structural  BaPr2CuO5
_chemical_formula_sum  Ba2Pr4Cu2O0
_cell_volume  272.1423532397569
_cell_formula_units_Z  2
loop_
  _symmetry_equiv_pos_site_id
 _symmetry_equiv_pos_as_xyz
 1  'x, y, z'
loop_
 _atom_site_type_symbol
 _atom_site_label
 _atom_site_symmetry_multiplicity
 _atom_site_fract_x
 _atom_site_fract_y
 _atom_site_fract_z
 _atom_site_fract_occupancy
 Ba  Ba1  1  0.50000  0.50000  0.00000  1
 Ba  Ba2  1  0.00000  0.00000  0.00000  1
 Cu  Cu1  1  0.00000  0.50000  0.00000  1
 Cu  Cu2  1  0.50000  0.00000  0.00000  1
 O  O1  1  0.00000  0.00000  0.50000  1
 O  O2  1  0.86087  0.36087  0.24123  1
 O  O3  1  0.36087  0.13913  0.24123  1
 O  O4  1  0.13913  0.63913  0.24123  1
 O  O5  1  0.13913  0.63913  0.75877  1
 O  O6  1  0.63913  0.86087  0.75877  1
 O  O7  1  0.86087  0.36087  0.75877  1
 O  O8  1  0.63913  0.86087  0.24123  1
 O  O9  1  0.36087  0.13913  0.75877  1
 O  O10  1  0.50000  0.50000  0.50000  1
 Pr  Pr1  1  0.67226  0.17226  0.50000  1
 Pr  Pr2  1  0.17226  0.32774  0.50000  1
 Pr  Pr3  1  0.82774  0.67226  0.50000  1
 Pr  Pr4  1  0.32774  0.82774  0.50000  1
