CIF file written using JARVIS-Tools package.
data_Na3FeO3
_symmetry_space_group_name_H-M  'P2_1/c'
_cell_length_a       5.75352
_cell_length_b       12.6253
_cell_length_c       6.25264
_cell_angle_alpha    90
_cell_angle_beta     122.137
_cell_angle_gamma    90

_symmetry_Int_Tables_number  14
_chemical_formula_structural  Na3FeO3
_chemical_formula_sum  Na2Fe4O2
_cell_volume  384.60080576235305
_cell_formula_units_Z  4
loop_
  _symmetry_equiv_pos_site_id
 _symmetry_equiv_pos_as_xyz
 1  'x, y, z'
loop_
 _atom_site_type_symbol
 _atom_site_label
 _atom_site_symmetry_multiplicity
 _atom_site_fract_x
 _atom_site_fract_y
 _atom_site_fract_z
 _atom_site_fract_occupancy
 Fe  Fe1  1  0.08280  0.83672  0.75670  1
 Fe  Fe2  1  0.91720  0.16328  0.24330  1
 Fe  Fe3  1  0.08280  0.66328  0.25670  1
 Fe  Fe4  1  0.91720  0.33672  0.74330  1
 Na  Na1  1  0.55293  0.77868  0.69244  1
 Na  Na2  1  0.45720  0.01587  0.71803  1
 Na  Na3  1  0.06496  0.09769  0.86026  1
 Na  Na4  1  0.93504  0.59769  0.63974  1
 Na  Na5  1  0.44707  0.22132  0.30756  1
 Na  Na6  1  0.06496  0.40231  0.36026  1
 Na  Na7  1  0.45720  0.48413  0.21803  1
 Na  Na8  1  0.54280  0.98413  0.28197  1
 Na  Na9  1  0.44707  0.27868  0.80756  1
 Na  Na10  1  0.54280  0.51587  0.78197  1
 Na  Na11  1  0.55293  0.72132  0.19244  1
 Na  Na12  1  0.93504  0.90231  0.13974  1
 O  O1  1  0.17987  0.43843  0.80031  1
 O  O2  1  0.82013  0.93843  0.69969  1
 O  O3  1  0.82013  0.56157  0.19969  1
 O  O4  1  0.17987  0.06157  0.30031  1
 O  O5  1  0.54798  0.37313  0.54684  1
 O  O6  1  0.02902  0.77215  0.45110  1
 O  O7  1  0.97098  0.27215  0.04890  1
 O  O8  1  0.02902  0.72785  0.95110  1
 O  O9  1  0.97098  0.22785  0.54890  1
 O  O10  1  0.54798  0.12687  0.04684  1
 O  O11  1  0.45202  0.87313  0.95316  1
 O  O12  1  0.45202  0.62687  0.45316  1
