CIF file written using JARVIS-Tools package.
data_FeCu2GeS4
_symmetry_space_group_name_H-M  'I-42m'
_cell_length_a       5.3273
_cell_length_b       5.32729
_cell_length_c       6.49435
_cell_angle_alpha    114.214
_cell_angle_beta     114.214
_cell_angle_gamma    90

_symmetry_Int_Tables_number  121
_chemical_formula_structural  FeCu2GeS4
_chemical_formula_sum  FeCu2GeS4
_cell_volume  150.13686638643716
_cell_formula_units_Z  1
loop_
  _symmetry_equiv_pos_site_id
 _symmetry_equiv_pos_as_xyz
 1  'x, y, z'
loop_
 _atom_site_type_symbol
 _atom_site_label
 _atom_site_symmetry_multiplicity
 _atom_site_fract_x
 _atom_site_fract_y
 _atom_site_fract_z
 _atom_site_fract_occupancy
 Cu  Cu1  1  0.25000  0.75000  0.50000  1
 Cu  Cu2  1  0.75000  0.25000  0.50000  1
 Fe  Fe1  1  0.00000  0.00000  0.00000  1
 Ge  Ge1  1  0.50000  0.50000  -0.00000  1
 S  S1  1  0.62686  0.62686  0.74899  1
 S  S2  1  0.87788  0.37314  0.25101  1
 S  S3  1  0.37314  0.87788  0.25101  1
 S  S4  1  0.12212  0.12212  0.74899  1
