CIF file written using JARVIS-Tools package.
data_Ba2AlCr3O7
_symmetry_space_group_name_H-M  'Pmmm'
_cell_length_a       3.81835
_cell_length_b       3.8612
_cell_length_c       11.3185
_cell_angle_alpha    90
_cell_angle_beta     90
_cell_angle_gamma    90

_symmetry_Int_Tables_number  47
_chemical_formula_structural  Ba2AlCr3O7
_chemical_formula_sum  Ba2AlCr3O7
_cell_volume  166.87277952738708
_cell_formula_units_Z  1
loop_
  _symmetry_equiv_pos_site_id
 _symmetry_equiv_pos_as_xyz
 1  'x, y, z'
loop_
 _atom_site_type_symbol
 _atom_site_label
 _atom_site_symmetry_multiplicity
 _atom_site_fract_x
 _atom_site_fract_y
 _atom_site_fract_z
 _atom_site_fract_occupancy
 Al  Al1  1  0.50000  0.50000  0.50000  1
 Ba  Ba1  1  0.50000  0.50000  0.18101  1
 Ba  Ba2  1  0.50000  0.50000  0.81899  1
 Cr  Cr1  1  0.00000  0.00000  0.35447  1
 Cr  Cr2  1  0.00000  0.00000  0.64553  1
 Cr  Cr3  1  0.00000  0.00000  0.00000  1
 O  O1  1  0.00000  0.50000  0.00000  1
 O  O2  1  0.50000  0.00000  0.39131  1
 O  O3  1  0.50000  0.00000  0.60869  1
 O  O4  1  0.00000  0.50000  0.39087  1
 O  O5  1  0.00000  0.50000  0.60913  1
 O  O6  1  0.00000  0.00000  0.17696  1
 O  O7  1  0.00000  0.00000  0.82304  1
