CIF file written using JARVIS-Tools package.
data_Li6UO6
_symmetry_space_group_name_H-M  'R-3'
_cell_length_a       5.43597
_cell_length_b       5.43597
_cell_length_c       5.43597
_cell_angle_alpha    101.112
_cell_angle_beta     101.111
_cell_angle_gamma    101.111

_symmetry_Int_Tables_number  148
_chemical_formula_structural  Li6UO6
_chemical_formula_sum  Li6UO6
_cell_volume  150.19416963269498
_cell_formula_units_Z  1
loop_
  _symmetry_equiv_pos_site_id
 _symmetry_equiv_pos_as_xyz
 1  'x, y, z'
loop_
 _atom_site_type_symbol
 _atom_site_label
 _atom_site_symmetry_multiplicity
 _atom_site_fract_x
 _atom_site_fract_y
 _atom_site_fract_z
 _atom_site_fract_occupancy
 Li  Li1  1  0.64326  0.35427  0.00257  1
 Li  Li2  1  0.35674  0.64573  0.99743  1
 Li  Li3  1  0.64573  0.99743  0.35674  1
 Li  Li4  1  0.99743  0.35674  0.64573  1
 Li  Li5  1  0.35427  0.00257  0.64326  1
 Li  Li6  1  0.00257  0.64326  0.35427  1
 O  O1  1  0.10283  0.73080  0.72840  1
 O  O2  1  0.89717  0.26920  0.27160  1
 O  O3  1  0.26920  0.27160  0.89717  1
 O  O4  1  0.27160  0.89717  0.26920  1
 O  O5  1  0.73080  0.72840  0.10283  1
 O  O6  1  0.72840  0.10283  0.73080  1
 U  U1  1  0.00000  0.00000  0.00000  1
