CIF file written using JARVIS-Tools package.
data_YReW2O8
_symmetry_space_group_name_H-M  'P1'
_cell_length_a       5.04376
_cell_length_b       5.8288
_cell_length_c       6.15915
_cell_angle_alpha    112.582
_cell_angle_beta     110.891
_cell_angle_gamma    87.5129

_symmetry_Int_Tables_number  1
_chemical_formula_structural  YReW2O8
_chemical_formula_sum  YReW2O8
_cell_volume  155.27768378209865
_cell_formula_units_Z  1
loop_
  _symmetry_equiv_pos_site_id
 _symmetry_equiv_pos_as_xyz
 1  'x, y, z'
loop_
 _atom_site_type_symbol
 _atom_site_label
 _atom_site_symmetry_multiplicity
 _atom_site_fract_x
 _atom_site_fract_y
 _atom_site_fract_z
 _atom_site_fract_occupancy
 O  O1  1  0.32429  0.31647  0.18119  1
 O  O2  1  0.25903  0.54010  0.69489  1
 O  O3  1  0.36799  0.79145  0.20387  1
 O  O4  1  0.17375  0.96950  0.57995  1
 O  O5  1  0.78898  0.01226  0.10445  1
 O  O6  1  0.72806  0.23742  0.62107  1
 O  O7  1  0.68169  0.76289  0.59645  1
 O  O8  1  0.87702  0.58469  0.22055  1
 Re  Re1  1  0.02443  0.77606  0.90003  1
 W  W1  1  0.28072  0.60335  0.41852  1
 W  W2  1  0.76875  0.95088  0.38231  1
 Y  Y1  1  0.52519  0.27641  0.90062  1
