CIF file written using JARVIS-Tools package.
data_ZrGe2
_symmetry_space_group_name_H-M  'Cmcm'
_cell_length_a       3.84512
_cell_length_b       3.80841
_cell_length_c       7.86244
_cell_angle_alpha    90
_cell_angle_beta     104.154
_cell_angle_gamma    90

_symmetry_Int_Tables_number  63
_chemical_formula_structural  ZrGe2
_chemical_formula_sum  Zr2Ge4
_cell_volume  111.64085258599391
_cell_formula_units_Z  2
loop_
  _symmetry_equiv_pos_site_id
 _symmetry_equiv_pos_as_xyz
 1  'x, y, z'
loop_
 _atom_site_type_symbol
 _atom_site_label
 _atom_site_symmetry_multiplicity
 _atom_site_fract_x
 _atom_site_fract_y
 _atom_site_fract_z
 _atom_site_fract_occupancy
 Ge  Ge1  1  0.44079  0.75000  0.88159  1
 Ge  Ge2  1  0.55921  0.25000  0.11841  1
 Ge  Ge3  1  0.25026  0.25000  0.50053  1
 Ge  Ge4  1  0.74974  0.75000  0.49947  1
 Zr  Zr1  1  0.10534  0.75000  0.21068  1
 Zr  Zr2  1  0.89466  0.25000  0.78932  1
