CIF file written using JARVIS-Tools package.
data_RbAgO
_symmetry_space_group_name_H-M  'I4/mmm'
_cell_length_a       5.79826
_cell_length_b       7.67992
_cell_length_c       7.67992
_cell_angle_alpha    81.8073
_cell_angle_beta     67.8215
_cell_angle_gamma    67.8214

_symmetry_Int_Tables_number  139
_chemical_formula_structural  RbAgO
_chemical_formula_sum  Rb4Ag4O4
_cell_volume  293.2537217453419
_cell_formula_units_Z  4
loop_
  _symmetry_equiv_pos_site_id
 _symmetry_equiv_pos_as_xyz
 1  'x, y, z'
loop_
 _atom_site_type_symbol
 _atom_site_label
 _atom_site_symmetry_multiplicity
 _atom_site_fract_x
 _atom_site_fract_y
 _atom_site_fract_z
 _atom_site_fract_occupancy
 Ag  Ag1  1  0.89629  0.50000  0.20741  1
 Ag  Ag2  1  0.89629  0.20741  0.50000  1
 Ag  Ag3  1  0.60371  0.79259  0.50000  1
 Ag  Ag4  1  0.60371  0.50000  0.79259  1
 O  O1  1  0.46022  0.78978  0.78978  1
 O  O2  1  0.75000  0.78978  0.21022  1
 O  O3  1  0.75000  0.21022  0.78978  1
 O  O4  1  0.03978  0.21022  0.21022  1
 Rb  Rb1  1  0.93703  0.81297  0.81297  1
 Rb  Rb2  1  0.25000  0.81297  0.18703  1
 Rb  Rb3  1  0.25000  0.18703  0.81297  1
 Rb  Rb4  1  0.56297  0.18703  0.18703  1
