CIF file written using JARVIS-Tools package.
data_MgSb2O4
_symmetry_space_group_name_H-M  'P1'
_cell_length_a       6.80283
_cell_length_b       6.80074
_cell_length_c       6.81681
_cell_angle_alpha    92.7221
_cell_angle_beta     118.452
_cell_angle_gamma    118.374

_symmetry_Int_Tables_number  1
_chemical_formula_structural  MgSb2O4
_chemical_formula_sum  Mg2Sb4O8
_cell_volume  228.16885163112977
_cell_formula_units_Z  2
loop_
  _symmetry_equiv_pos_site_id
 _symmetry_equiv_pos_as_xyz
 1  'x, y, z'
loop_
 _atom_site_type_symbol
 _atom_site_label
 _atom_site_symmetry_multiplicity
 _atom_site_fract_x
 _atom_site_fract_y
 _atom_site_fract_z
 _atom_site_fract_occupancy
 Mg  Mg1  1  0.24980  0.12477  0.87502  1
 Mg  Mg2  1  0.75019  0.87545  0.12476  1
 O  O1  1  0.00263  0.24641  0.29313  1
 O  O2  1  0.95315  0.70728  0.20909  1
 O  O3  1  0.49844  0.79041  0.24384  1
 O  O4  1  0.52539  0.25405  0.21945  1
 O  O5  1  0.46588  0.27120  0.74613  1
 O  O6  1  0.97376  0.19416  0.72801  1
 O  O7  1  0.54640  0.75639  0.75407  1
 O  O8  1  0.03431  0.77986  0.80644  1
 Sb  Sb1  1  0.06599  0.58711  0.00501  1
 Sb  Sb2  1  0.58224  0.99516  0.55998  1
 Sb  Sb3  1  0.43511  0.43954  0.52297  1
 Sb  Sb4  1  0.91672  0.47821  0.41211  1
