CIF file written using JARVIS-Tools package.
data_CaH2
_symmetry_space_group_name_H-M  'Pnma'
_cell_length_a       3.55194
_cell_length_b       5.88515
_cell_length_c       6.77179
_cell_angle_alpha    90
_cell_angle_beta     90
_cell_angle_gamma    90

_symmetry_Int_Tables_number  62
_chemical_formula_structural  CaH2
_chemical_formula_sum  Ca4H8
_cell_volume  141.55535593885472
_cell_formula_units_Z  4
loop_
  _symmetry_equiv_pos_site_id
 _symmetry_equiv_pos_as_xyz
 1  'x, y, z'
loop_
 _atom_site_type_symbol
 _atom_site_label
 _atom_site_symmetry_multiplicity
 _atom_site_fract_x
 _atom_site_fract_y
 _atom_site_fract_z
 _atom_site_fract_occupancy
 Ca  Ca1  1  0.25000  0.73968  0.61168  1
 Ca  Ca2  1  0.75000  0.26032  0.38832  1
 Ca  Ca3  1  0.25000  0.23968  0.88832  1
 Ca  Ca4  1  0.75000  0.76032  0.11168  1
 H  H1  1  0.25000  0.47339  0.17593  1
 H  H2  1  0.75000  0.52661  0.82407  1
 H  H3  1  0.25000  0.97339  0.32407  1
 H  H4  1  0.75000  0.02661  0.67593  1
 H  H5  1  0.75000  0.64433  0.42795  1
 H  H6  1  0.25000  0.35567  0.57205  1
 H  H7  1  0.75000  0.14433  0.07205  1
 H  H8  1  0.25000  0.85567  0.92795  1
