CIF file written using JARVIS-Tools package.
data_AgSbS2
_symmetry_space_group_name_H-M  'C2/c'
_cell_length_a       4.44581
_cell_length_b       6.81963
_cell_length_c       13.3585
_cell_angle_alpha    97.9481
_cell_angle_beta     90
_cell_angle_gamma    109.024

_symmetry_Int_Tables_number  15
_chemical_formula_structural  AgSbS2
_chemical_formula_sum  Ag4Sb4S8
_cell_volume  378.77762659996364
_cell_formula_units_Z  4
loop_
  _symmetry_equiv_pos_site_id
 _symmetry_equiv_pos_as_xyz
 1  'x, y, z'
loop_
 _atom_site_type_symbol
 _atom_site_label
 _atom_site_symmetry_multiplicity
 _atom_site_fract_x
 _atom_site_fract_y
 _atom_site_fract_z
 _atom_site_fract_occupancy
 Ag  Ag1  1  0.50000  0.00000  0.00000  1
 Ag  Ag2  1  0.02348  -0.00000  0.75000  1
 Ag  Ag3  1  0.50000  -0.00000  0.50000  1
 Ag  Ag4  1  -0.02348  -0.00000  0.25000  1
 S  S1  1  0.28228  0.21857  0.91764  1
 S  S2  1  0.06372  0.78143  0.58236  1
 S  S3  1  0.71772  0.78143  0.08236  1
 S  S4  1  0.93628  0.21857  0.41764  1
 S  S5  1  0.50181  0.28424  0.19867  1
 S  S6  1  0.78243  0.28424  0.69867  1
 S  S7  1  0.49819  0.71576  0.80133  1
 S  S8  1  0.21757  0.71576  0.30133  1
 Sb  Sb1  1  0.28735  0.50704  0.62544  1
 Sb  Sb2  1  0.78032  0.49296  0.87456  1
 Sb  Sb3  1  0.71265  0.49296  0.37456  1
 Sb  Sb4  1  0.21968  0.50704  0.12544  1
