CIF file written using JARVIS-Tools package.
data_Cu3TeS3Cl
_symmetry_space_group_name_H-M  'R3m'
_cell_length_a       5.47921
_cell_length_b       5.47921
_cell_length_c       5.47921
_cell_angle_alpha    85.0678
_cell_angle_beta     85.0678
_cell_angle_gamma    85.0678

_symmetry_Int_Tables_number  160
_chemical_formula_structural  Cu3TeS3Cl
_chemical_formula_sum  Cu3TeS3Cl
_cell_volume  162.76687899243367
_cell_formula_units_Z  1
loop_
  _symmetry_equiv_pos_site_id
 _symmetry_equiv_pos_as_xyz
 1  'x, y, z'
loop_
 _atom_site_type_symbol
 _atom_site_label
 _atom_site_symmetry_multiplicity
 _atom_site_fract_x
 _atom_site_fract_y
 _atom_site_fract_z
 _atom_site_fract_occupancy
 Cl  Cl1  1  0.56769  0.56769  0.56769  1
 Cu  Cu1  1  0.77017  0.77017  0.19573  1
 Cu  Cu2  1  0.77017  0.19573  0.77017  1
 Cu  Cu3  1  0.19573  0.77017  0.77017  1
 S  S1  1  0.47055  0.97169  0.97169  1
 S  S2  1  0.97169  0.47055  0.97169  1
 S  S3  1  0.97169  0.97169  0.47055  1
 Te  Te1  1  0.25497  0.25497  0.25497  1
