CIF file written using JARVIS-Tools package.
data_Rb4In2S5
_symmetry_space_group_name_H-M  'P-1'
_cell_length_a       7.53518
_cell_length_b       9.36497
_cell_length_c       10.9341
_cell_angle_alpha    73.112
_cell_angle_beta     70.2789
_cell_angle_gamma    86.0028

_symmetry_Int_Tables_number  2
_chemical_formula_structural  Rb4In2S5
_chemical_formula_sum  Rb8In4S0
_cell_volume  694.6636329852076
_cell_formula_units_Z  2
loop_
  _symmetry_equiv_pos_site_id
 _symmetry_equiv_pos_as_xyz
 1  'x, y, z'
loop_
 _atom_site_type_symbol
 _atom_site_label
 _atom_site_symmetry_multiplicity
 _atom_site_fract_x
 _atom_site_fract_y
 _atom_site_fract_z
 _atom_site_fract_occupancy
 In  In1  1  0.87671  0.40687  0.17248  1
 In  In2  1  0.96878  0.00707  0.65889  1
 In  In3  1  0.12329  0.59313  0.82752  1
 In  In4  1  0.03122  -0.00707  0.34111  1
 Rb  Rb1  1  0.49368  0.20936  0.08794  1
 Rb  Rb2  1  0.11990  0.18115  0.90989  1
 Rb  Rb3  1  0.76661  0.47367  0.66406  1
 Rb  Rb4  1  0.54089  0.18374  0.54749  1
 Rb  Rb5  1  0.45911  0.81626  0.45251  1
 Rb  Rb6  1  0.50632  0.79064  0.91206  1
 Rb  Rb7  1  0.23339  0.52633  0.33594  1
 Rb  Rb8  1  0.88010  0.81885  0.09011  1
 S  S1  1  0.78099  0.52043  0.96154  1
 S  S2  1  0.72991  0.52107  0.35197  1
 S  S3  1  0.73587  0.11352  0.81947  1
 S  S4  1  0.27009  0.47893  0.64803  1
 S  S5  1  0.21901  0.47957  0.03846  1
 S  S6  1  0.17865  0.15855  0.42910  1
 S  S7  1  0.82135  0.84145  0.57090  1
 S  S8  1  0.19949  0.87067  0.76802  1
 S  S9  1  0.80051  0.12933  0.23198  1
 S  S10  1  0.26413  0.88648  0.18053  1
