CIF file written using JARVIS-Tools package.
data_CrPO4
_symmetry_space_group_name_H-M  'Pnma'
_cell_length_a       4.69909
_cell_length_b       5.62822
_cell_length_c       9.77223
_cell_angle_alpha    90
_cell_angle_beta     90
_cell_angle_gamma    90

_symmetry_Int_Tables_number  62
_chemical_formula_structural  CrPO4
_chemical_formula_sum  Cr4P4O6
_cell_volume  258.45120029684733
_cell_formula_units_Z  4
loop_
  _symmetry_equiv_pos_site_id
 _symmetry_equiv_pos_as_xyz
 1  'x, y, z'
loop_
 _atom_site_type_symbol
 _atom_site_label
 _atom_site_symmetry_multiplicity
 _atom_site_fract_x
 _atom_site_fract_y
 _atom_site_fract_z
 _atom_site_fract_occupancy
 Cr  Cr1  1  0.44474  0.75000  0.76898  1
 Cr  Cr2  1  0.94474  0.25000  0.73102  1
 Cr  Cr3  1  0.05526  0.75000  0.26898  1
 Cr  Cr4  1  0.55526  0.25000  0.23102  1
 O  O1  1  0.18176  0.25000  0.56585  1
 O  O2  1  0.70141  0.25000  0.88917  1
 O  O3  1  0.22785  0.03749  0.83605  1
 O  O4  1  0.72785  0.96251  0.66395  1
 O  O5  1  0.31824  0.25000  0.06585  1
 O  O6  1  0.29859  0.75000  0.11083  1
 O  O7  1  0.22785  0.46251  0.83605  1
 O  O8  1  0.77215  0.53749  0.16395  1
 O  O9  1  0.27215  0.46251  0.33605  1
 O  O10  1  0.79859  0.25000  0.38917  1
 O  O11  1  0.77215  0.96251  0.16395  1
 O  O12  1  0.81824  0.75000  0.43415  1
 O  O13  1  0.68176  0.75000  0.93415  1
 O  O14  1  0.20141  0.75000  0.61083  1
 O  O15  1  0.72785  0.53749  0.66395  1
 O  O16  1  0.27215  0.03749  0.33605  1
 P  P1  1  0.38248  0.25000  0.91380  1
 P  P2  1  0.88248  0.75000  0.58620  1
 P  P3  1  0.11752  0.25000  0.41380  1
 P  P4  1  0.61752  0.75000  0.08620  1
