CIF file written using JARVIS-Tools package.
data_KH3F4
_symmetry_space_group_name_H-M  'R-3c'
_cell_length_a       5.77365
_cell_length_b       5.77365
_cell_length_c       5.77365
_cell_angle_alpha    80.3411
_cell_angle_beta     80.3411
_cell_angle_gamma    80.341

_symmetry_Int_Tables_number  167
_chemical_formula_structural  KH3F4
_chemical_formula_sum  K2H6F8
_cell_volume  185.10626201091753
_cell_formula_units_Z  2
loop_
  _symmetry_equiv_pos_site_id
 _symmetry_equiv_pos_as_xyz
 1  'x, y, z'
loop_
 _atom_site_type_symbol
 _atom_site_label
 _atom_site_symmetry_multiplicity
 _atom_site_fract_x
 _atom_site_fract_y
 _atom_site_fract_z
 _atom_site_fract_occupancy
 F  F1  1  0.25000  0.57469  0.92531  1
 F  F2  1  0.42531  0.07469  0.75000  1
 F  F3  1  0.75000  0.42531  0.07469  1
 F  F4  1  0.07469  0.75000  0.42531  1
 F  F5  1  0.75000  0.75000  0.75000  1
 F  F6  1  0.25000  0.25000  0.25000  1
 F  F7  1  0.92531  0.25000  0.57469  1
 F  F8  1  0.57469  0.92531  0.25000  1
 H  H1  1  0.94045  0.75000  0.55955  1
 H  H2  1  0.75000  0.55955  0.94045  1
 H  H3  1  0.25000  0.44045  0.05955  1
 H  H4  1  0.44045  0.05955  0.25000  1
 H  H5  1  0.55955  0.94045  0.75000  1
 H  H6  1  0.05955  0.25000  0.44045  1
 K  K1  1  0.50000  0.50000  0.50000  1
 K  K2  1  0.00000  0.00000  0.00000  1
