CIF file written using JARVIS-Tools package.
data_YbGe2Ru2
_symmetry_space_group_name_H-M  'I4/mmm'
_cell_length_a       4.26446
_cell_length_b       4.26447
_cell_length_c       5.78597
_cell_angle_alpha    111.624
_cell_angle_beta     111.624
_cell_angle_gamma    90.0001

_symmetry_Int_Tables_number  139
_chemical_formula_structural  YbGe2Ru2
_chemical_formula_sum  YbGe2Ru2
_cell_volume  89.80206627988527
_cell_formula_units_Z  1
loop_
  _symmetry_equiv_pos_site_id
 _symmetry_equiv_pos_as_xyz
 1  'x, y, z'
loop_
 _atom_site_type_symbol
 _atom_site_label
 _atom_site_symmetry_multiplicity
 _atom_site_fract_x
 _atom_site_fract_y
 _atom_site_fract_z
 _atom_site_fract_occupancy
 Ge  Ge1  1  0.63045  0.63045  0.26091  1
 Ge  Ge2  1  0.36955  0.36955  0.73909  1
 Ru  Ru1  1  0.75000  0.25000  0.50000  1
 Ru  Ru2  1  0.25000  0.75000  0.50000  1
 Yb  Yb1  1  0.00000  0.00000  0.00000  1
