CIF file written using JARVIS-Tools package.
data_Sr2AlTlV2O7
_symmetry_space_group_name_H-M  'P4mm'
_cell_length_a       3.62619
_cell_length_b       3.62619
_cell_length_c       13.7201
_cell_angle_alpha    90
_cell_angle_beta     90
_cell_angle_gamma    90

_symmetry_Int_Tables_number  99
_chemical_formula_structural  Sr2AlTlV2O7
_chemical_formula_sum  Sr2AlTlV2O7
_cell_volume  180.4080756853103
_cell_formula_units_Z  1
loop_
  _symmetry_equiv_pos_site_id
 _symmetry_equiv_pos_as_xyz
 1  'x, y, z'
loop_
 _atom_site_type_symbol
 _atom_site_label
 _atom_site_symmetry_multiplicity
 _atom_site_fract_x
 _atom_site_fract_y
 _atom_site_fract_z
 _atom_site_fract_occupancy
 Al  Al1  1  0.50000  0.50000  0.50148  1
 O  O1  1  0.50000  0.00000  0.59122  1
 O  O2  1  0.00000  0.50000  0.59122  1
 O  O3  1  0.50000  0.00000  0.41580  1
 O  O4  1  0.00000  0.50000  0.41580  1
 O  O5  1  0.00000  0.00000  0.78181  1
 O  O6  1  0.00000  0.00000  0.22330  1
 O  O7  1  0.50000  0.50000  0.97788  1
 Sr  Sr1  1  0.50000  0.50000  0.80733  1
 Sr  Sr2  1  0.50000  0.50000  0.17987  1
 Tl  Tl1  1  0.00000  0.00000  0.00912  1
 V  V1  1  0.00000  0.00000  0.64302  1
 V  V2  1  0.00000  0.00000  0.36213  1
