CIF file written using JARVIS-Tools package.
data_MgH2
_symmetry_space_group_name_H-M  'Pnma'
_cell_length_a       3.13208
_cell_length_b       5.25813
_cell_length_c       6.01489
_cell_angle_alpha    90
_cell_angle_beta     90
_cell_angle_gamma    90

_symmetry_Int_Tables_number  62
_chemical_formula_structural  MgH2
_chemical_formula_sum  Mg4H8
_cell_volume  99.0585847133148
_cell_formula_units_Z  4
loop_
  _symmetry_equiv_pos_site_id
 _symmetry_equiv_pos_as_xyz
 1  'x, y, z'
loop_
 _atom_site_type_symbol
 _atom_site_label
 _atom_site_symmetry_multiplicity
 _atom_site_fract_x
 _atom_site_fract_y
 _atom_site_fract_z
 _atom_site_fract_occupancy
 H  H1  1  0.25000  0.48186  0.16308  1
 H  H2  1  0.75000  0.51814  0.83692  1
 H  H3  1  0.25000  0.98186  0.33692  1
 H  H4  1  0.75000  0.01814  0.66308  1
 H  H5  1  0.75000  0.63811  0.42207  1
 H  H6  1  0.25000  0.36189  0.57793  1
 H  H7  1  0.75000  0.13811  0.07793  1
 H  H8  1  0.25000  0.86189  0.92207  1
 Mg  Mg1  1  0.25000  0.74996  0.59961  1
 Mg  Mg2  1  0.75000  0.25004  0.40039  1
 Mg  Mg3  1  0.25000  0.24996  0.90039  1
 Mg  Mg4  1  0.75000  0.75004  0.09961  1
