CIF file written using JARVIS-Tools package.
data_NdNbO4
_symmetry_space_group_name_H-M  'C2/c'
_cell_length_a       5.2252
_cell_length_b       5.50698
_cell_length_c       6.77575
_cell_angle_alpha    112.245
_cell_angle_beta     110.872
_cell_angle_gamma    94.1347

_symmetry_Int_Tables_number  15
_chemical_formula_structural  NdNbO4
_chemical_formula_sum  Nd2Nb2O8
_cell_volume  163.71871351942355
_cell_formula_units_Z  2
loop_
  _symmetry_equiv_pos_site_id
 _symmetry_equiv_pos_as_xyz
 1  'x, y, z'
loop_
 _atom_site_type_symbol
 _atom_site_label
 _atom_site_symmetry_multiplicity
 _atom_site_fract_x
 _atom_site_fract_y
 _atom_site_fract_z
 _atom_site_fract_occupancy
 Nb  Nb1  1  0.64436  0.89436  0.78872  1
 Nb  Nb2  1  0.35564  0.10564  0.21128  1
 Nd  Nd1  1  0.12111  0.37111  0.74222  1
 Nd  Nd2  1  0.87889  0.62889  0.25778  1
 O  O1  1  0.78565  0.94525  0.58367  1
 O  O2  1  0.29802  0.63842  0.58367  1
 O  O3  1  0.21435  0.05475  0.41633  1
 O  O4  1  0.70198  0.36158  0.41633  1
 O  O5  1  0.08102  0.27501  0.06460  1
 O  O6  1  0.48357  0.78959  0.06460  1
 O  O7  1  0.91898  0.72499  0.93540  1
 O  O8  1  0.51643  0.21041  0.93540  1
