CIF file written using JARVIS-Tools package.
data_Li8PtO6
_symmetry_space_group_name_H-M  'R-3'
_cell_length_a       5.90987
_cell_length_b       5.90987
_cell_length_c       5.90987
_cell_angle_alpha    54.5445
_cell_angle_beta     54.5445
_cell_angle_gamma    54.5445

_symmetry_Int_Tables_number  148
_chemical_formula_structural  Li8PtO6
_chemical_formula_sum  Li8PtO6
_cell_volume  127.39470414083223
_cell_formula_units_Z  1
loop_
  _symmetry_equiv_pos_site_id
 _symmetry_equiv_pos_as_xyz
 1  'x, y, z'
loop_
 _atom_site_type_symbol
 _atom_site_label
 _atom_site_symmetry_multiplicity
 _atom_site_fract_x
 _atom_site_fract_y
 _atom_site_fract_z
 _atom_site_fract_occupancy
 Li  Li1  1  0.34308  0.34308  0.34308  1
 Li  Li2  1  0.51430  0.90037  0.23227  1
 Li  Li3  1  0.23227  0.51430  0.90037  1
 Li  Li4  1  0.90037  0.23227  0.51430  1
 Li  Li5  1  0.48570  0.09963  0.76773  1
 Li  Li6  1  0.76773  0.48570  0.09963  1
 Li  Li7  1  0.65692  0.65692  0.65692  1
 Li  Li8  1  0.09963  0.76773  0.48570  1
 O  O1  1  0.23751  0.90666  0.61350  1
 O  O2  1  0.09334  0.38650  0.76249  1
 O  O3  1  0.76249  0.09334  0.38650  1
 O  O4  1  0.61350  0.23751  0.90666  1
 O  O5  1  0.90666  0.61350  0.23751  1
 O  O6  1  0.38650  0.76249  0.09334  1
 Pt  Pt1  1  0.00000  0.00000  0.00000  1
