CIF file written using JARVIS-Tools package.
data_ZnCu2O4
_symmetry_space_group_name_H-M  'I4_1/amd'
_cell_length_a       5.48756
_cell_length_b       5.48756
_cell_length_c       6.51354
_cell_angle_alpha    114.913
_cell_angle_beta     114.913
_cell_angle_gamma    90

_symmetry_Int_Tables_number  141
_chemical_formula_structural  ZnCu2O4
_chemical_formula_sum  Zn2Cu4O8
_cell_volume  157.54059845817838
_cell_formula_units_Z  2
loop_
  _symmetry_equiv_pos_site_id
 _symmetry_equiv_pos_as_xyz
 1  'x, y, z'
loop_
 _atom_site_type_symbol
 _atom_site_label
 _atom_site_symmetry_multiplicity
 _atom_site_fract_x
 _atom_site_fract_y
 _atom_site_fract_z
 _atom_site_fract_occupancy
 Cu  Cu1  1  0.00000  0.00000  0.50000  1
 Cu  Cu2  1  0.00000  0.50000  0.00000  1
 Cu  Cu3  1  0.50000  0.00000  0.50000  1
 Cu  Cu4  1  0.00000  0.00000  0.00000  1
 O  O1  1  0.74980  0.77178  0.49961  1
 O  O2  1  0.77217  0.25020  0.00039  1
 O  O3  1  0.22822  0.25020  0.00039  1
 O  O4  1  0.25020  0.22822  0.50039  1
 O  O5  1  0.25020  0.77217  0.50039  1
 O  O6  1  0.22783  0.74980  0.99961  1
 O  O7  1  0.74980  0.22783  0.49961  1
 O  O8  1  0.77178  0.74980  0.99961  1
 Zn  Zn1  1  0.37500  0.62500  0.75000  1
 Zn  Zn2  1  0.62500  0.37500  0.25000  1
