CIF file written using JARVIS-Tools package.
data_CaAg2O4
_symmetry_space_group_name_H-M  'I4_1/amd'
_cell_length_a       5.98851
_cell_length_b       5.98852
_cell_length_c       7.34739
_cell_angle_alpha    114.05
_cell_angle_beta     114.049
_cell_angle_gamma    90

_symmetry_Int_Tables_number  141
_chemical_formula_structural  CaAg2O4
_chemical_formula_sum  Ca2Ag4O8
_cell_volume  215.33195859951286
_cell_formula_units_Z  2
loop_
  _symmetry_equiv_pos_site_id
 _symmetry_equiv_pos_as_xyz
 1  'x, y, z'
loop_
 _atom_site_type_symbol
 _atom_site_label
 _atom_site_symmetry_multiplicity
 _atom_site_fract_x
 _atom_site_fract_y
 _atom_site_fract_z
 _atom_site_fract_occupancy
 Ag  Ag1  1  -0.00000  0.00000  0.50000  1
 Ag  Ag2  1  -0.00000  0.50000  -0.00000  1
 Ag  Ag3  1  0.50000  0.00000  0.50000  1
 Ag  Ag4  1  0.00000  0.00000  0.00000  1
 Ca  Ca1  1  0.37500  0.62500  0.75000  1
 Ca  Ca2  1  0.62500  0.37500  0.25000  1
 O  O1  1  0.75443  0.77800  0.50886  1
 O  O2  1  0.76914  0.24557  -0.00886  1
 O  O3  1  0.22200  0.24557  -0.00886  1
 O  O4  1  0.24557  0.22200  0.49114  1
 O  O5  1  0.24557  0.76914  0.49114  1
 O  O6  1  0.23086  0.75443  0.00886  1
 O  O7  1  0.75443  0.23086  0.50886  1
 O  O8  1  0.77800  0.75443  0.00886  1
