CIF file written using JARVIS-Tools package.
data_V4P2C
_symmetry_space_group_name_H-M  'P-62m'
_cell_length_a       9.57069
_cell_length_b       9.57069
_cell_length_c       3.16929
_cell_angle_alpha    90
_cell_angle_beta     90
_cell_angle_gamma    120

_symmetry_Int_Tables_number  189
_chemical_formula_structural  V4P2C
_chemical_formula_sum  V2P6C3
_cell_volume  251.4078939773414
_cell_formula_units_Z  3
loop_
  _symmetry_equiv_pos_site_id
 _symmetry_equiv_pos_as_xyz
 1  'x, y, z'
loop_
 _atom_site_type_symbol
 _atom_site_label
 _atom_site_symmetry_multiplicity
 _atom_site_fract_x
 _atom_site_fract_y
 _atom_site_fract_z
 _atom_site_fract_occupancy
 C  C1  1  0.66915  0.00000  0.50000  1
 C  C2  1  0.00000  0.66915  0.50000  1
 C  C3  1  0.33085  0.33085  0.50000  1
 P  P1  1  0.28275  -0.00000  0.00000  1
 P  P2  1  -0.00000  0.28275  0.00000  1
 P  P3  1  0.71725  0.71725  0.00000  1
 P  P4  1  0.66667  0.33333  0.00000  1
 P  P5  1  0.33333  0.66667  0.00000  1
 P  P6  1  0.00000  0.00000  0.50000  1
 V  V1  1  0.53404  -0.00000  0.00000  1
 V  V2  1  0.81347  0.00000  0.00000  1
 V  V3  1  0.46596  0.46596  0.00000  1
 V  V4  1  -0.00000  0.53404  0.00000  1
 V  V5  1  0.45172  0.20805  0.50000  1
 V  V6  1  0.24366  0.79195  0.50000  1
 V  V7  1  0.54828  0.75634  0.50000  1
 V  V8  1  0.20805  0.45172  0.50000  1
 V  V9  1  0.79195  0.24366  0.50000  1
 V  V10  1  0.75634  0.54828  0.50000  1
 V  V11  1  0.18653  0.18653  0.00000  1
 V  V12  1  0.00000  0.81347  0.00000  1
