CIF file written using JARVIS-Tools package.
data_CdPt3O6
_symmetry_space_group_name_H-M  'Cmmm'
_cell_length_a       3.22119
_cell_length_b       6.30387
_cell_length_c       6.30388
_cell_angle_alpha    109.403
_cell_angle_beta     90
_cell_angle_gamma    90

_symmetry_Int_Tables_number  65
_chemical_formula_structural  CdPt3O6
_chemical_formula_sum  CdPt3O6
_cell_volume  120.7364459335898
_cell_formula_units_Z  1
loop_
  _symmetry_equiv_pos_site_id
 _symmetry_equiv_pos_as_xyz
 1  'x, y, z'
loop_
 _atom_site_type_symbol
 _atom_site_label
 _atom_site_symmetry_multiplicity
 _atom_site_fract_x
 _atom_site_fract_y
 _atom_site_fract_z
 _atom_site_fract_occupancy
 Cd  Cd1  1  0.00000  0.50000  0.50000  1
 O  O1  1  0.00000  0.92409  0.66519  1
 O  O2  1  0.00000  0.07591  0.33481  1
 O  O3  1  0.00000  0.66519  0.92409  1
 O  O4  1  0.00000  0.33481  0.07591  1
 O  O5  1  0.50000  0.33774  0.66226  1
 O  O6  1  0.50000  0.66226  0.33774  1
 Pt  Pt1  1  0.50000  0.50000  0.00000  1
 Pt  Pt2  1  0.00000  0.00000  0.00000  1
 Pt  Pt3  1  0.50000  0.00000  0.50000  1
