CIF file written using JARVIS-Tools package.
data_HfAs2
_symmetry_space_group_name_H-M  'Pnma'
_cell_length_a       3.72046
_cell_length_b       6.84584
_cell_length_c       9.01119
_cell_angle_alpha    90
_cell_angle_beta     90
_cell_angle_gamma    90

_symmetry_Int_Tables_number  62
_chemical_formula_structural  HfAs2
_chemical_formula_sum  Hf4As8
_cell_volume  229.51176800224053
_cell_formula_units_Z  4
loop_
  _symmetry_equiv_pos_site_id
 _symmetry_equiv_pos_as_xyz
 1  'x, y, z'
loop_
 _atom_site_type_symbol
 _atom_site_label
 _atom_site_symmetry_multiplicity
 _atom_site_fract_x
 _atom_site_fract_y
 _atom_site_fract_z
 _atom_site_fract_occupancy
 As  As1  1  0.25000  0.42116  0.64886  1
 As  As2  1  0.75000  0.57884  0.35114  1
 As  As3  1  0.25000  0.92116  0.85114  1
 As  As4  1  0.75000  0.07884  0.14886  1
 As  As5  1  0.75000  0.12014  0.54290  1
 As  As6  1  0.25000  0.87986  0.45710  1
 As  As7  1  0.75000  0.62014  0.95710  1
 As  As8  1  0.25000  0.37986  0.04290  1
 Hf  Hf1  1  0.25000  0.27219  0.33876  1
 Hf  Hf2  1  0.75000  0.72781  0.66124  1
 Hf  Hf3  1  0.25000  0.77219  0.16124  1
 Hf  Hf4  1  0.75000  0.22781  0.83876  1
