CIF file written using JARVIS-Tools package.
data_BaMn2O8
_symmetry_space_group_name_H-M  'Fddd'
_cell_length_a       7.04933
_cell_length_b       7.04933
_cell_length_c       8.29268
_cell_angle_alpha    103.533
_cell_angle_beta     103.533
_cell_angle_gamma    116.707

_symmetry_Int_Tables_number  70
_chemical_formula_structural  BaMn2O8
_chemical_formula_sum  Ba2Mn4O6
_cell_volume  329.48235776468795
_cell_formula_units_Z  2
loop_
  _symmetry_equiv_pos_site_id
 _symmetry_equiv_pos_as_xyz
 1  'x, y, z'
loop_
 _atom_site_type_symbol
 _atom_site_label
 _atom_site_symmetry_multiplicity
 _atom_site_fract_x
 _atom_site_fract_y
 _atom_site_fract_z
 _atom_site_fract_occupancy
 Ba  Ba1  1  0.87500  0.12500  0.25000  1
 Ba  Ba2  1  0.12500  0.87500  0.75000  1
 Mn  Mn1  1  0.57203  0.42797  0.25000  1
 Mn  Mn2  1  0.17797  0.82203  0.25000  1
 Mn  Mn3  1  0.42797  0.57203  0.75000  1
 Mn  Mn4  1  0.82203  0.17797  0.75000  1
 O  O1  1  0.51656  0.21202  0.08017  1
 O  O2  1  0.06362  0.86815  0.08017  1
 O  O3  1  0.78798  0.48344  0.41983  1
 O  O4  1  0.86815  0.06362  0.58017  1
 O  O5  1  0.48344  0.78798  0.91983  1
 O  O6  1  0.45122  0.94160  0.30123  1
 O  O7  1  0.64037  0.64999  0.19877  1
 O  O8  1  0.35963  0.35001  0.80123  1
 O  O9  1  0.13185  0.93638  0.41983  1
 O  O10  1  0.35001  0.35963  0.30123  1
 O  O11  1  0.94160  0.45122  0.80123  1
 O  O12  1  0.64999  0.64037  0.69877  1
 O  O13  1  0.21202  0.51656  0.58017  1
 O  O14  1  0.93638  0.13185  0.91983  1
 O  O15  1  0.05840  0.54878  0.19877  1
 O  O16  1  0.54878  0.05840  0.69877  1
