CIF file written using JARVIS-Tools package.
data_CrOF3
_symmetry_space_group_name_H-M  'P4_1'
_cell_length_a       5.1715
_cell_length_b       5.1715
_cell_length_c       8.9183
_cell_angle_alpha    90
_cell_angle_beta     90
_cell_angle_gamma    90

_symmetry_Int_Tables_number  76
_chemical_formula_structural  CrOF3
_chemical_formula_sum  Cr4O4F2
_cell_volume  238.5145901217693
_cell_formula_units_Z  4
loop_
  _symmetry_equiv_pos_site_id
 _symmetry_equiv_pos_as_xyz
 1  'x, y, z'
loop_
 _atom_site_type_symbol
 _atom_site_label
 _atom_site_symmetry_multiplicity
 _atom_site_fract_x
 _atom_site_fract_y
 _atom_site_fract_z
 _atom_site_fract_occupancy
 Cr  Cr1  1  0.57138  0.11112  0.75345  1
 Cr  Cr2  1  0.88888  0.57138  0.00345  1
 Cr  Cr3  1  0.11112  0.42862  0.50345  1
 Cr  Cr4  1  0.42862  0.88888  0.25345  1
 F  F1  1  0.94585  0.20424  0.62778  1
 F  F2  1  0.43681  0.31945  0.59078  1
 F  F3  1  0.15229  0.57619  0.87910  1
 F  F4  1  0.56319  0.68055  0.09078  1
 F  F5  1  0.79576  0.94585  0.87778  1
 F  F6  1  0.42381  0.15229  0.12910  1
 F  F7  1  0.05415  0.79576  0.12778  1
 F  F8  1  0.31945  0.56319  0.34078  1
 F  F9  1  0.20424  0.05415  0.37778  1
 F  F10  1  0.57619  0.84771  0.62910  1
 F  F11  1  0.68055  0.43681  0.84078  1
 F  F12  1  0.84771  0.42381  0.37910  1
 O  O1  1  0.07837  0.68645  0.59010  1
 O  O2  1  0.92163  0.31355  0.09010  1
 O  O3  1  0.68645  0.92163  0.34010  1
 O  O4  1  0.31355  0.07837  0.84010  1
