CIF file written using JARVIS-Tools package.
data_RuS2
_symmetry_space_group_name_H-M  'Pa-3'
_cell_length_a       5.66622
_cell_length_b       5.66622
_cell_length_c       5.66622
_cell_angle_alpha    90
_cell_angle_beta     90
_cell_angle_gamma    90

_symmetry_Int_Tables_number  205
_chemical_formula_structural  RuS2
_chemical_formula_sum  Ru4S8
_cell_volume  181.92008271852126
_cell_formula_units_Z  4
loop_
  _symmetry_equiv_pos_site_id
 _symmetry_equiv_pos_as_xyz
 1  'x, y, z'
loop_
 _atom_site_type_symbol
 _atom_site_label
 _atom_site_symmetry_multiplicity
 _atom_site_fract_x
 _atom_site_fract_y
 _atom_site_fract_z
 _atom_site_fract_occupancy
 Ru  Ru1  1  0.00000  0.50000  0.50000  1
 Ru  Ru2  1  0.50000  0.50000  0.00000  1
 Ru  Ru3  1  0.50000  0.00000  0.50000  1
 Ru  Ru4  1  0.00000  0.00000  0.00000  1
 S  S1  1  0.38649  0.11351  0.88649  1
 S  S2  1  0.11351  0.88649  0.38649  1
 S  S3  1  0.88649  0.38649  0.11351  1
 S  S4  1  0.61351  0.61351  0.61351  1
 S  S5  1  0.38649  0.38649  0.38649  1
 S  S6  1  0.11351  0.61351  0.88649  1
 S  S7  1  0.88649  0.11351  0.61351  1
 S  S8  1  0.61351  0.88649  0.11351  1
