CIF file written using JARVIS-Tools package.
data_Na2PtO3
_symmetry_space_group_name_H-M  'C2/c'
_cell_length_a       5.48901
_cell_length_b       5.48901
_cell_length_c       10.7062
_cell_angle_alpha    94.9588
_cell_angle_beta     94.9589
_cell_angle_gamma    120.015

_symmetry_Int_Tables_number  15
_chemical_formula_structural  Na2PtO3
_chemical_formula_sum  Na8Pt4O2
_cell_volume  275.102783870421
_cell_formula_units_Z  4
loop_
  _symmetry_equiv_pos_site_id
 _symmetry_equiv_pos_as_xyz
 1  'x, y, z'
loop_
 _atom_site_type_symbol
 _atom_site_label
 _atom_site_symmetry_multiplicity
 _atom_site_fract_x
 _atom_site_fract_y
 _atom_site_fract_z
 _atom_site_fract_occupancy
 Na  Na1  1  0.08471  0.91529  0.75000  1
 Na  Na2  1  0.15923  0.31874  -0.00009  1
 Na  Na3  1  0.91529  0.08471  0.25000  1
 Na  Na4  1  0.68126  0.84077  0.50009  1
 Na  Na5  1  0.84077  0.68126  0.00009  1
 Na  Na6  1  0.50000  0.00000  0.00000  1
 Na  Na7  1  0.31874  0.15923  0.49991  1
 Na  Na8  1  0.00000  0.50000  0.50000  1
 O  O1  1  0.95102  0.75982  0.35497  1
 O  O2  1  0.40921  0.88047  0.64486  1
 O  O3  1  0.75982  0.95102  0.85497  1
 O  O4  1  0.88047  0.40921  0.14486  1
 O  O5  1  0.11953  0.59079  0.85514  1
 O  O6  1  0.68813  0.51972  0.64498  1
 O  O7  1  0.48028  0.31187  0.85502  1
 O  O8  1  0.51972  0.68813  0.14498  1
 O  O9  1  0.31187  0.48028  0.35502  1
 O  O10  1  0.04898  0.24018  0.64503  1
 O  O11  1  0.24018  0.04898  0.14503  1
 O  O12  1  0.59079  0.11953  0.35514  1
 Pt  Pt1  1  0.24947  0.75053  0.25000  1
 Pt  Pt2  1  0.41746  0.58254  0.75000  1
 Pt  Pt3  1  0.75053  0.24947  0.75000  1
 Pt  Pt4  1  0.58254  0.41746  0.25000  1
