CIF file written using JARVIS-Tools package.
data_PdPbF4
_symmetry_space_group_name_H-M  'I4/mcm'
_cell_length_a       5.93625
_cell_length_b       5.93625
_cell_length_c       6.85524
_cell_angle_alpha    115.656
_cell_angle_beta     115.656
_cell_angle_gamma    90

_symmetry_Int_Tables_number  140
_chemical_formula_structural  PdPbF4
_chemical_formula_sum  Pd2Pb2F8
_cell_volume  190.99048547385513
_cell_formula_units_Z  2
loop_
  _symmetry_equiv_pos_site_id
 _symmetry_equiv_pos_as_xyz
 1  'x, y, z'
loop_
 _atom_site_type_symbol
 _atom_site_label
 _atom_site_symmetry_multiplicity
 _atom_site_fract_x
 _atom_site_fract_y
 _atom_site_fract_z
 _atom_site_fract_occupancy
 F  F1  1  0.96161  0.46161  0.26088  1
 F  F2  1  0.70074  0.20074  0.73912  1
 F  F3  1  0.03839  0.53839  0.73912  1
 F  F4  1  0.20074  0.03839  0.73912  1
 F  F5  1  0.29926  0.79926  0.26088  1
 F  F6  1  0.46161  0.29926  0.26088  1
 F  F7  1  0.79926  0.96161  0.26088  1
 F  F8  1  0.53839  0.70074  0.73912  1
 Pb  Pb1  1  0.75000  0.75000  0.50000  1
 Pb  Pb2  1  0.25000  0.25000  0.50000  1
 Pd  Pd1  1  0.50000  0.00000  -0.00000  1
 Pd  Pd2  1  0.00000  0.50000  0.00000  1
