CIF file written using JARVIS-Tools package.
data_Li4GeO4
_symmetry_space_group_name_H-M  'Cmcm'
_cell_length_a       5.35325
_cell_length_b       5.35325
_cell_length_c       6.08701
_cell_angle_alpha    90
_cell_angle_beta     90
_cell_angle_gamma    93.6832

_symmetry_Int_Tables_number  63
_chemical_formula_structural  Li4GeO4
_chemical_formula_sum  Li8Ge2O8
_cell_volume  174.07712077508583
_cell_formula_units_Z  2
loop_
  _symmetry_equiv_pos_site_id
 _symmetry_equiv_pos_as_xyz
 1  'x, y, z'
loop_
 _atom_site_type_symbol
 _atom_site_label
 _atom_site_symmetry_multiplicity
 _atom_site_fract_x
 _atom_site_fract_y
 _atom_site_fract_z
 _atom_site_fract_occupancy
 Ge  Ge1  1  0.34069  0.34069  0.25000  1
 Ge  Ge2  1  0.65931  0.65931  0.75000  1
 Li  Li1  1  0.41866  0.12413  0.75000  1
 Li  Li2  1  0.58134  0.87587  0.25000  1
 Li  Li3  1  0.16095  0.83905  0.50000  1
 Li  Li4  1  0.12413  0.41866  0.75000  1
 Li  Li5  1  0.83905  0.16095  0.50000  1
 Li  Li6  1  0.16095  0.83905  0.00000  1
 Li  Li7  1  0.87587  0.58134  0.25000  1
 Li  Li8  1  0.83905  0.16095  0.00000  1
 O  O1  1  0.33780  0.73196  0.75000  1
 O  O2  1  0.73196  0.33780  0.75000  1
 O  O3  1  0.20397  0.20397  0.00456  1
 O  O4  1  0.79603  0.79603  0.50456  1
 O  O5  1  0.20397  0.20397  0.49544  1
 O  O6  1  0.79603  0.79603  0.99544  1
 O  O7  1  0.66220  0.26804  0.25000  1
 O  O8  1  0.26804  0.66220  0.25000  1
