CIF file written using JARVIS-Tools package.
data_CoSe2
_symmetry_space_group_name_H-M  'Pnnm'
_cell_length_a       3.63095
_cell_length_b       4.91755
_cell_length_c       5.83732
_cell_angle_alpha    90
_cell_angle_beta     90
_cell_angle_gamma    90

_symmetry_Int_Tables_number  58
_chemical_formula_structural  CoSe2
_chemical_formula_sum  Co2Se4
_cell_volume  104.22739188108717
_cell_formula_units_Z  2
loop_
  _symmetry_equiv_pos_site_id
 _symmetry_equiv_pos_as_xyz
 1  'x, y, z'
loop_
 _atom_site_type_symbol
 _atom_site_label
 _atom_site_symmetry_multiplicity
 _atom_site_fract_x
 _atom_site_fract_y
 _atom_site_fract_z
 _atom_site_fract_occupancy
 Co  Co1  1  0.00000  0.00000  0.00000  1
 Co  Co2  1  0.50000  0.50000  0.50000  1
 Se  Se1  1  0.00000  0.21858  0.36780  1
 Se  Se2  1  0.00000  0.78142  0.63220  1
 Se  Se3  1  0.50000  0.71858  0.13220  1
 Se  Se4  1  0.50000  0.28142  0.86780  1
