CIF file written using JARVIS-Tools package.
data_LiFeP2O7
_symmetry_space_group_name_H-M  'Cc'
_cell_length_a       5.31772
_cell_length_b       5.31772
_cell_length_c       9.27916
_cell_angle_alpha    78.5555
_cell_angle_beta     101.445
_cell_angle_gamma    79.6528

_symmetry_Int_Tables_number  9
_chemical_formula_structural  LiFeP2O7
_chemical_formula_sum  Li2Fe2P4O4
_cell_volume  245.4304541388388
_cell_formula_units_Z  2
loop_
  _symmetry_equiv_pos_site_id
 _symmetry_equiv_pos_as_xyz
 1  'x, y, z'
loop_
 _atom_site_type_symbol
 _atom_site_label
 _atom_site_symmetry_multiplicity
 _atom_site_fract_x
 _atom_site_fract_y
 _atom_site_fract_z
 _atom_site_fract_occupancy
 Fe  Fe1  1  0.72278  0.63702  0.48138  1
 Fe  Fe2  1  0.36298  0.27722  0.98138  1
 Li  Li1  1  0.28220  0.34540  0.51895  1
 Li  Li2  1  0.65460  0.71781  0.01895  1
 O  O1  1  0.30791  0.98536  0.61699  1
 O  O2  1  0.37047  0.62793  0.85921  1
 O  O3  1  0.63750  0.39217  0.64388  1
 O  O4  1  0.01464  0.69209  0.11699  1
 O  O5  1  0.60783  0.36251  0.14388  1
 O  O6  1  0.39356  0.92457  0.11284  1
 O  O7  1  0.90416  0.39376  0.38559  1
 O  O8  1  0.06319  0.07170  0.24874  1
 O  O9  1  0.99857  0.30260  0.88588  1
 O  O10  1  0.69740  0.00143  0.38588  1
 O  O11  1  0.92830  0.93681  0.74874  1
 O  O12  1  0.07543  0.60644  0.61284  1
 O  O13  1  0.60624  0.09584  0.88559  1
 O  O14  1  0.37207  0.62953  0.35921  1
 P  P1  1  0.20907  0.81052  0.20436  1
 P  P2  1  0.79474  0.19310  0.79219  1
 P  P3  1  0.18948  0.79093  0.70436  1
 P  P4  1  0.80690  0.20526  0.29219  1
