CIF file written using JARVIS-Tools package.
data_NaZr2NiF11
_symmetry_space_group_name_H-M  'C2/m'
_cell_length_a       5.66172
_cell_length_b       5.66172
_cell_length_c       7.80314
_cell_angle_alpha    69.1906
_cell_angle_beta     69.1906
_cell_angle_gamma    72.7792

_symmetry_Int_Tables_number  12
_chemical_formula_structural  NaZr2NiF11
_chemical_formula_sum  NaZr2NiF
_cell_volume  214.39280365283057
_cell_formula_units_Z  1
loop_
  _symmetry_equiv_pos_site_id
 _symmetry_equiv_pos_as_xyz
 1  'x, y, z'
loop_
 _atom_site_type_symbol
 _atom_site_label
 _atom_site_symmetry_multiplicity
 _atom_site_fract_x
 _atom_site_fract_y
 _atom_site_fract_z
 _atom_site_fract_occupancy
 F  F1  1  0.81797  0.22140  0.68493  1
 F  F2  1  0.77860  0.18203  0.31507  1
 F  F3  1  0.18203  0.77860  0.31507  1
 F  F4  1  0.22140  0.81797  0.68493  1
 F  F5  1  0.50000  0.50000  0.50000  1
 F  F6  1  0.32698  0.67302  0.00000  1
 F  F7  1  0.67302  0.32698  -0.00000  1
 F  F8  1  0.24313  0.24313  0.34870  1
 F  F9  1  0.75687  0.75687  0.65130  1
 F  F10  1  0.26755  0.26755  0.89077  1
 F  F11  1  0.73245  0.73245  0.10923  1
 Na  Na1  1  0.00000  0.00000  0.00000  1
 Ni  Ni1  1  0.00000  0.00000  0.50000  1
 Zr  Zr1  1  0.50821  0.50821  0.76259  1
 Zr  Zr2  1  0.49179  0.49179  0.23741  1
