CIF file written using JARVIS-Tools package.
data_Rb2P3
_symmetry_space_group_name_H-M  'Fmmm'
_cell_length_a       6.59329
_cell_length_b       6.59328
_cell_length_c       8.53852
_cell_angle_alpha    110.674
_cell_angle_beta     110.674
_cell_angle_gamma    94.9082

_symmetry_Int_Tables_number  69
_chemical_formula_structural  Rb2P3
_chemical_formula_sum  Rb4P6
_cell_volume  315.40635402539675
_cell_formula_units_Z  2
loop_
  _symmetry_equiv_pos_site_id
 _symmetry_equiv_pos_as_xyz
 1  'x, y, z'
loop_
 _atom_site_type_symbol
 _atom_site_label
 _atom_site_symmetry_multiplicity
 _atom_site_fract_x
 _atom_site_fract_y
 _atom_site_fract_z
 _atom_site_fract_occupancy
 P  P1  1  0.84912  0.84912  0.69824  1
 P  P2  1  0.15088  0.15088  0.30176  1
 P  P3  1  0.13641  0.13641  0.85018  1
 P  P4  1  0.28623  0.28623  0.14982  1
 P  P5  1  0.86359  0.86359  0.14982  1
 P  P6  1  0.71377  0.71377  0.85018  1
 Rb  Rb1  1  0.25000  0.75000  0.50000  1
 Rb  Rb2  1  0.75000  0.25000  0.50000  1
 Rb  Rb3  1  0.27750  0.72250  0.00000  1
 Rb  Rb4  1  0.72250  0.27750  -0.00000  1
