CIF file written using JARVIS-Tools package.
data_Mn3Sn
_symmetry_space_group_name_H-M  'P6_3/mmc'
_cell_length_a       5.45094
_cell_length_b       5.45094
_cell_length_c       4.29253
_cell_angle_alpha    90
_cell_angle_beta     90
_cell_angle_gamma    120

_symmetry_Int_Tables_number  194
_chemical_formula_structural  Mn3Sn
_chemical_formula_sum  Mn6Sn2
_cell_volume  110.45500043865653
_cell_formula_units_Z  2
loop_
  _symmetry_equiv_pos_site_id
 _symmetry_equiv_pos_as_xyz
 1  'x, y, z'
loop_
 _atom_site_type_symbol
 _atom_site_label
 _atom_site_symmetry_multiplicity
 _atom_site_fract_x
 _atom_site_fract_y
 _atom_site_fract_z
 _atom_site_fract_occupancy
 Mn  Mn1  1  0.29952  0.14976  0.75000  1
 Mn  Mn2  1  0.14976  0.85024  0.25000  1
 Mn  Mn3  1  0.14976  0.29952  0.25000  1
 Mn  Mn4  1  0.85024  0.70048  0.75000  1
 Mn  Mn5  1  0.85024  0.14976  0.75000  1
 Mn  Mn6  1  0.70048  0.85024  0.25000  1
 Sn  Sn1  1  0.33333  0.66667  0.75000  1
 Sn  Sn2  1  0.66667  0.33333  0.25000  1
