CIF file written using JARVIS-Tools package.
data_PrSO
_symmetry_space_group_name_H-M  'C2/m'
_cell_length_a       5.72705
_cell_length_b       5.75201
_cell_length_c       7.03688
_cell_angle_alpha    90
_cell_angle_beta     101.818
_cell_angle_gamma    90

_symmetry_Int_Tables_number  12
_chemical_formula_structural  PrSO
_chemical_formula_sum  Pr4S4O4
_cell_volume  226.89585726984453
_cell_formula_units_Z  4
loop_
  _symmetry_equiv_pos_site_id
 _symmetry_equiv_pos_as_xyz
 1  'x, y, z'
loop_
 _atom_site_type_symbol
 _atom_site_label
 _atom_site_symmetry_multiplicity
 _atom_site_fract_x
 _atom_site_fract_y
 _atom_site_fract_z
 _atom_site_fract_occupancy
 O  O1  1  0.49999  0.75610  0.49998  1
 O  O2  1  0.99999  0.74390  0.49998  1
 O  O3  1  0.00001  0.25610  0.50002  1
 O  O4  1  0.50001  0.24390  0.50002  1
 Pr  Pr1  1  0.71419  0.00002  0.32132  1
 Pr  Pr2  1  0.28581  0.99998  0.67868  1
 Pr  Pr3  1  0.21419  0.49998  0.32132  1
 Pr  Pr4  1  0.78581  0.50002  0.67868  1
 S  S1  1  0.85391  0.00006  0.88055  1
 S  S2  1  0.35391  0.49994  0.88055  1
 S  S3  1  0.14609  0.99994  0.11945  1
 S  S4  1  0.64609  0.50006  0.11945  1
