CIF file written using JARVIS-Tools package.
data_ThH2
_symmetry_space_group_name_H-M  'I4/mmm'
_cell_length_a       3.80019
_cell_length_b       3.80019
_cell_length_c       3.8002
_cell_angle_alpha    98.6831
_cell_angle_beta     115.12
_cell_angle_gamma    115.12

_symmetry_Int_Tables_number  139
_chemical_formula_structural  ThH2
_chemical_formula_sum  ThH2
_cell_volume  41.15539525238741
_cell_formula_units_Z  1
loop_
  _symmetry_equiv_pos_site_id
 _symmetry_equiv_pos_as_xyz
 1  'x, y, z'
loop_
 _atom_site_type_symbol
 _atom_site_label
 _atom_site_symmetry_multiplicity
 _atom_site_fract_x
 _atom_site_fract_y
 _atom_site_fract_z
 _atom_site_fract_occupancy
 H  H1  1  0.50000  0.75000  0.25000  1
 H  H2  1  0.50000  0.25000  0.75000  1
 Th  Th1  1  0.00000  0.00000  0.00000  1
