CIF file written using JARVIS-Tools package.
data_V2ZnO4
_symmetry_space_group_name_H-M  'Fd-3m'
_cell_length_a       5.96752
_cell_length_b       5.96792
_cell_length_c       5.96777
_cell_angle_alpha    120
_cell_angle_beta     119.998
_cell_angle_gamma    90.0011

_symmetry_Int_Tables_number  227
_chemical_formula_structural  V2ZnO4
_chemical_formula_sum  V4Zn2O8
_cell_volume  150.28880694299946
_cell_formula_units_Z  2
loop_
  _symmetry_equiv_pos_site_id
 _symmetry_equiv_pos_as_xyz
 1  'x, y, z'
loop_
 _atom_site_type_symbol
 _atom_site_label
 _atom_site_symmetry_multiplicity
 _atom_site_fract_x
 _atom_site_fract_y
 _atom_site_fract_z
 _atom_site_fract_occupancy
 O  O1  1  0.75999  0.27997  0.02000  1
 O  O2  1  0.76000  0.74004  0.01999  1
 O  O3  1  0.22006  0.74002  0.48003  1
 O  O4  1  0.24003  0.25999  0.51997  1
 O  O5  1  0.77994  0.25998  0.51997  1
 O  O6  1  0.24000  0.25996  0.98001  1
 O  O7  1  0.75997  0.74001  0.48003  1
 O  O8  1  0.24001  0.72003  0.98000  1
 V  V1  1  0.00000  0.50000  -0.00000  1
 V  V2  1  -0.00000  -0.00000  0.50000  1
 V  V3  1  -0.00000  0.50000  0.50000  1
 V  V4  1  0.50000  0.50000  0.00000  1
 Zn  Zn1  1  0.37498  0.12497  0.24997  1
 Zn  Zn2  1  0.62502  0.87503  0.75003  1
