CIF file written using JARVIS-Tools package.
data_Li3Zn2SbO6
_symmetry_space_group_name_H-M  'C2/m'
_cell_length_a       5.21269
_cell_length_b       5.2811
_cell_length_c       5.28109
_cell_angle_alpha    119.7
_cell_angle_beta     100.058
_cell_angle_gamma    100.058

_symmetry_Int_Tables_number  12
_chemical_formula_structural  Li3Zn2SbO6
_chemical_formula_sum  Li3Zn2SbO6
_cell_volume  118.40338831597968
_cell_formula_units_Z  1
loop_
  _symmetry_equiv_pos_site_id
 _symmetry_equiv_pos_as_xyz
 1  'x, y, z'
loop_
 _atom_site_type_symbol
 _atom_site_label
 _atom_site_symmetry_multiplicity
 _atom_site_fract_x
 _atom_site_fract_y
 _atom_site_fract_z
 _atom_site_fract_occupancy
 Li  Li1  1  0.50000  0.17088  0.82912  1
 Li  Li2  1  0.50000  0.82912  0.17088  1
 Li  Li3  1  0.50000  0.50000  0.50000  1
 O  O1  1  0.76146  0.92179  0.60644  1
 O  O2  1  0.23043  0.76345  0.76345  1
 O  O3  1  0.23854  0.07821  0.39356  1
 O  O4  1  0.76146  0.60644  0.92179  1
 O  O5  1  0.76957  0.23655  0.23655  1
 O  O6  1  0.23854  0.39356  0.07821  1
 Sb  Sb1  1  0.00000  0.00000  0.00000  1
 Zn  Zn1  1  -0.00000  0.33354  0.66646  1
 Zn  Zn2  1  0.00000  0.66646  0.33354  1
