CIF file written using JARVIS-Tools package.
data_MgCu2O4
_symmetry_space_group_name_H-M  'I4_1/amd'
_cell_length_a       5.48073
_cell_length_b       5.48072
_cell_length_c       6.63679
_cell_angle_alpha    114.388
_cell_angle_beta     114.388
_cell_angle_gamma    89.9999

_symmetry_Int_Tables_number  141
_chemical_formula_structural  MgCu2O4
_chemical_formula_sum  Mg2Cu4O8
_cell_volume  161.83921789556922
_cell_formula_units_Z  2
loop_
  _symmetry_equiv_pos_site_id
 _symmetry_equiv_pos_as_xyz
 1  'x, y, z'
loop_
 _atom_site_type_symbol
 _atom_site_label
 _atom_site_symmetry_multiplicity
 _atom_site_fract_x
 _atom_site_fract_y
 _atom_site_fract_z
 _atom_site_fract_occupancy
 Cu  Cu1  1  -0.00000  -0.00000  0.50000  1
 Cu  Cu2  1  0.00000  0.50000  0.00000  1
 Cu  Cu3  1  0.50000  -0.00000  0.50000  1
 Cu  Cu4  1  0.00000  0.00000  0.00000  1
 Mg  Mg1  1  0.37500  0.62500  0.75000  1
 Mg  Mg2  1  0.62500  0.37500  0.25000  1
 O  O1  1  0.74659  0.77005  0.49318  1
 O  O2  1  0.77687  0.25341  0.00682  1
 O  O3  1  0.22995  0.25341  0.00682  1
 O  O4  1  0.25341  0.22995  0.50682  1
 O  O5  1  0.25341  0.77687  0.50682  1
 O  O6  1  0.22313  0.74659  0.99318  1
 O  O7  1  0.74659  0.22313  0.49318  1
 O  O8  1  0.77005  0.74659  0.99318  1
