CIF file written using JARVIS-Tools package.
data_Na4B2O5
_symmetry_space_group_name_H-M  'C2/c'
_cell_length_a       6.24228
_cell_length_b       6.68129
_cell_length_c       6.68128
_cell_angle_alpha    73.6533
_cell_angle_beta     73.6613
_cell_angle_gamma    73.6613

_symmetry_Int_Tables_number  15
_chemical_formula_structural  Na4B2O5
_chemical_formula_sum  Na8B4O0
_cell_volume  250.33143882972135
_cell_formula_units_Z  2
loop_
  _symmetry_equiv_pos_site_id
 _symmetry_equiv_pos_as_xyz
 1  'x, y, z'
loop_
 _atom_site_type_symbol
 _atom_site_label
 _atom_site_symmetry_multiplicity
 _atom_site_fract_x
 _atom_site_fract_y
 _atom_site_fract_z
 _atom_site_fract_occupancy
 B  B1  1  0.16705  0.07102  0.74623  1
 B  B2  1  0.66705  0.74623  0.07102  1
 B  B3  1  0.33295  0.25377  0.92898  1
 B  B4  1  0.83295  0.92898  0.25377  1
 Na  Na1  1  0.57809  0.66929  0.59675  1
 Na  Na2  1  0.77134  0.03268  0.68461  1
 Na  Na3  1  0.92191  0.40325  0.33071  1
 Na  Na4  1  0.22866  0.96732  0.31539  1
 Na  Na5  1  0.27134  0.68461  0.03268  1
 Na  Na6  1  0.42191  0.33071  0.40325  1
 Na  Na7  1  0.07809  0.59675  0.66929  1
 Na  Na8  1  0.72866  0.31539  0.96732  1
 O  O1  1  0.78381  0.11848  0.31465  1
 O  O2  1  0.71619  0.68535  0.88152  1
 O  O3  1  0.03933  0.25776  0.65187  1
 O  O4  1  0.28381  0.31465  0.11848  1
 O  O5  1  0.96067  0.74224  0.34813  1
 O  O6  1  0.53933  0.65187  0.25776  1
 O  O7  1  0.46067  0.34813  0.74224  1
 O  O8  1  0.75000  0.92737  0.07263  1
 O  O9  1  0.25000  0.07263  0.92737  1
 O  O10  1  0.21619  0.88152  0.68535  1
