CIF file written using JARVIS-Tools package.
data_NbCrGe
_symmetry_space_group_name_H-M  'P-62m'
_cell_length_a       6.761
_cell_length_b       6.761
_cell_length_c       3.3833
_cell_angle_alpha    90
_cell_angle_beta     90
_cell_angle_gamma    120

_symmetry_Int_Tables_number  189
_chemical_formula_structural  NbCrGe
_chemical_formula_sum  Nb3Cr3Ge3
_cell_volume  133.93467301281072
_cell_formula_units_Z  3
loop_
  _symmetry_equiv_pos_site_id
 _symmetry_equiv_pos_as_xyz
 1  'x, y, z'
loop_
 _atom_site_type_symbol
 _atom_site_label
 _atom_site_symmetry_multiplicity
 _atom_site_fract_x
 _atom_site_fract_y
 _atom_site_fract_z
 _atom_site_fract_occupancy
 Cr  Cr1  1  0.00000  0.25623  0.00000  1
 Cr  Cr2  1  0.25623  0.00000  0.00000  1
 Cr  Cr3  1  0.74377  0.74377  0.00000  1
 Ge  Ge1  1  0.66667  0.33333  0.00000  1
 Ge  Ge2  1  0.00000  0.00000  0.50000  1
 Ge  Ge3  1  0.33333  0.66667  0.00000  1
 Nb  Nb1  1  0.40446  0.40446  0.50000  1
 Nb  Nb2  1  0.00000  0.59554  0.50000  1
 Nb  Nb3  1  0.59554  0.00000  0.50000  1
