CIF file written using JARVIS-Tools package.
data_Ba2TlNi2O7
_symmetry_space_group_name_H-M  'P4/mmm'
_cell_length_a       3.64563
_cell_length_b       3.64564
_cell_length_c       13.2421
_cell_angle_alpha    90
_cell_angle_beta     89.9992
_cell_angle_gamma    90

_symmetry_Int_Tables_number  123
_chemical_formula_structural  Ba2TlNi2O7
_chemical_formula_sum  Ba2TlNi2O7
_cell_volume  175.99627796457335
_cell_formula_units_Z  1
loop_
  _symmetry_equiv_pos_site_id
 _symmetry_equiv_pos_as_xyz
 1  'x, y, z'
loop_
 _atom_site_type_symbol
 _atom_site_label
 _atom_site_symmetry_multiplicity
 _atom_site_fract_x
 _atom_site_fract_y
 _atom_site_fract_z
 _atom_site_fract_occupancy
 Ba  Ba1  1  0.00000  0.00000  0.28358  1
 Ba  Ba2  1  -0.00001  0.00000  0.71643  1
 Ni  Ni1  1  0.50001  0.50000  0.09450  1
 Ni  Ni2  1  0.50003  0.50000  0.90551  1
 O  O1  1  -0.00000  0.00000  0.50000  1
 O  O2  1  0.50001  0.00000  0.11953  1
 O  O3  1  0.00001  0.50000  0.11951  1
 O  O4  1  0.49997  0.00000  0.88050  1
 O  O5  1  0.00001  0.50000  0.88048  1
 O  O6  1  0.50000  0.50000  0.34169  1
 O  O7  1  0.49999  0.50000  0.65832  1
 Tl  Tl1  1  0.49999  0.50000  0.50000  1
