CIF file written using JARVIS-Tools package.
data_As4S3
_symmetry_space_group_name_H-M  'Pnma'
_cell_length_a       6.62282
_cell_length_b       9.82335
_cell_length_c       11.3029
_cell_angle_alpha    90
_cell_angle_beta     90
_cell_angle_gamma    90

_symmetry_Int_Tables_number  62
_chemical_formula_structural  As4S3
_chemical_formula_sum  As6S2
_cell_volume  735.3442696000554
_cell_formula_units_Z  4
loop_
  _symmetry_equiv_pos_site_id
 _symmetry_equiv_pos_as_xyz
 1  'x, y, z'
loop_
 _atom_site_type_symbol
 _atom_site_label
 _atom_site_symmetry_multiplicity
 _atom_site_fract_x
 _atom_site_fract_y
 _atom_site_fract_z
 _atom_site_fract_occupancy
 As  As1  1  0.20358  0.61965  0.06994  1
 As  As2  1  0.17374  0.25000  0.31036  1
 As  As3  1  0.79642  0.11965  0.93006  1
 As  As4  1  0.20358  0.88035  0.06994  1
 As  As5  1  0.89360  0.25000  0.58713  1
 As  As6  1  0.79642  0.38035  0.93006  1
 As  As7  1  0.39360  0.75000  0.91287  1
 As  As8  1  0.67374  0.75000  0.18964  1
 As  As9  1  0.70358  0.11965  0.43006  1
 As  As10  1  0.70358  0.38035  0.43006  1
 As  As11  1  0.82626  0.75000  0.68964  1
 As  As12  1  0.32626  0.25000  0.81036  1
 As  As13  1  0.29642  0.61965  0.56994  1
 As  As14  1  0.29642  0.88035  0.56994  1
 As  As15  1  0.60640  0.25000  0.08713  1
 As  As16  1  0.10640  0.75000  0.41287  1
 S  S1  1  0.05273  0.92426  0.70392  1
 S  S2  1  0.79091  0.75000  0.48895  1
 S  S3  1  0.44727  0.57574  0.20392  1
 S  S4  1  0.70909  0.75000  0.98895  1
 S  S5  1  0.55273  0.42426  0.79608  1
 S  S6  1  0.29091  0.25000  0.01105  1
 S  S7  1  0.94727  0.42426  0.29608  1
 S  S8  1  0.55273  0.07574  0.79608  1
 S  S9  1  0.94727  0.07574  0.29608  1
 S  S10  1  0.44727  0.92426  0.20392  1
 S  S11  1  0.20909  0.25000  0.51105  1
 S  S12  1  0.05273  0.57574  0.70392  1
