CIF file written using JARVIS-Tools package.
data_Ag2SeO4
_symmetry_space_group_name_H-M  'Fddd'
_cell_length_a       6.29196
_cell_length_b       6.29196
_cell_length_c       7.05157
_cell_angle_alpha    101.364
_cell_angle_beta     101.364
_cell_angle_gamma    123.942

_symmetry_Int_Tables_number  70
_chemical_formula_structural  Ag2SeO4
_chemical_formula_sum  Ag4Se2O8
_cell_volume  210.25357418649975
_cell_formula_units_Z  2
loop_
  _symmetry_equiv_pos_site_id
 _symmetry_equiv_pos_as_xyz
 1  'x, y, z'
loop_
 _atom_site_type_symbol
 _atom_site_label
 _atom_site_symmetry_multiplicity
 _atom_site_fract_x
 _atom_site_fract_y
 _atom_site_fract_z
 _atom_site_fract_occupancy
 Ag  Ag1  1  0.18135  0.81865  0.25000  1
 Ag  Ag2  1  0.56865  0.43135  0.25000  1
 Ag  Ag3  1  0.81865  0.18135  0.75000  1
 Ag  Ag4  1  0.43135  0.56865  0.75000  1
 O  O1  1  0.86768  0.29964  0.09855  1
 O  O2  1  0.20109  0.26913  0.40145  1
 O  O3  1  0.70036  0.13232  0.40145  1
 O  O4  1  0.73087  0.79891  0.09855  1
 O  O5  1  0.13232  0.70036  0.90145  1
 O  O6  1  0.79891  0.73087  0.59855  1
 O  O7  1  0.26913  0.20109  0.90145  1
 O  O8  1  0.29964  0.86768  0.59855  1
 Se  Se1  1  0.87500  0.12500  0.25000  1
 Se  Se2  1  0.12500  0.87500  0.75000  1
