CIF file written using JARVIS-Tools package.
data_NpTeAs
_symmetry_space_group_name_H-M  'P4/nmm'
_cell_length_a       4.14094
_cell_length_b       4.14094
_cell_length_c       8.85251
_cell_angle_alpha    90
_cell_angle_beta     90
_cell_angle_gamma    90

_symmetry_Int_Tables_number  129
_chemical_formula_structural  NpTeAs
_chemical_formula_sum  Np2Te2As2
_cell_volume  151.79765514362686
_cell_formula_units_Z  2
loop_
  _symmetry_equiv_pos_site_id
 _symmetry_equiv_pos_as_xyz
 1  'x, y, z'
loop_
 _atom_site_type_symbol
 _atom_site_label
 _atom_site_symmetry_multiplicity
 _atom_site_fract_x
 _atom_site_fract_y
 _atom_site_fract_z
 _atom_site_fract_occupancy
 As  As1  1  0.50000  0.50000  0.00000  1
 As  As2  1  0.00000  0.00000  0.00000  1
 Np  Np1  1  0.50000  0.00000  0.75034  1
 Np  Np2  1  0.00000  0.50000  0.24966  1
 Te  Te1  1  0.00000  0.50000  0.62986  1
 Te  Te2  1  0.50000  0.00000  0.37014  1
