CIF file written using JARVIS-Tools package.
data_KAgF4
_symmetry_space_group_name_H-M  'I4/mcm'
_cell_length_a       5.87462
_cell_length_b       5.87462
_cell_length_c       7.14426
_cell_angle_alpha    114.277
_cell_angle_beta     114.277
_cell_angle_gamma    89.9999

_symmetry_Int_Tables_number  140
_chemical_formula_structural  KAgF4
_chemical_formula_sum  K2Ag2F8
_cell_volume  200.59501599691222
_cell_formula_units_Z  2
loop_
  _symmetry_equiv_pos_site_id
 _symmetry_equiv_pos_as_xyz
 1  'x, y, z'
loop_
 _atom_site_type_symbol
 _atom_site_label
 _atom_site_symmetry_multiplicity
 _atom_site_fract_x
 _atom_site_fract_y
 _atom_site_fract_z
 _atom_site_fract_occupancy
 Ag  Ag1  1  -0.00000  0.50000  -0.00000  1
 Ag  Ag2  1  0.50000  -0.00000  0.00000  1
 F  F1  1  0.94796  0.44796  0.23202  1
 F  F2  1  0.71594  0.21594  0.76798  1
 F  F3  1  0.05204  0.55204  0.76798  1
 F  F4  1  0.21594  0.05204  0.76798  1
 F  F5  1  0.28406  0.78406  0.23202  1
 F  F6  1  0.44796  0.28406  0.23202  1
 F  F7  1  0.78406  0.94796  0.23202  1
 F  F8  1  0.55204  0.71594  0.76798  1
 K  K1  1  0.25000  0.25000  0.50000  1
 K  K2  1  0.75000  0.75000  0.50000  1
