CIF file written using JARVIS-Tools package.
data_Sr3HoRhO6
_symmetry_space_group_name_H-M  'R-3c'
_cell_length_a       6.81068
_cell_length_b       6.81068
_cell_length_c       6.81068
_cell_angle_alpha    92.0651
_cell_angle_beta     92.065
_cell_angle_gamma    92.065

_symmetry_Int_Tables_number  167
_chemical_formula_structural  Sr3HoRhO6
_chemical_formula_sum  Sr6Ho2Rh2O2
_cell_volume  315.2850784812043
_cell_formula_units_Z  2
loop_
  _symmetry_equiv_pos_site_id
 _symmetry_equiv_pos_as_xyz
 1  'x, y, z'
loop_
 _atom_site_type_symbol
 _atom_site_label
 _atom_site_symmetry_multiplicity
 _atom_site_fract_x
 _atom_site_fract_y
 _atom_site_fract_z
 _atom_site_fract_occupancy
 Ho  Ho1  1  0.25000  0.25000  0.25000  1
 Ho  Ho2  1  0.75000  0.75000  0.75000  1
 O  O1  1  0.09051  0.29221  0.95653  1
 O  O2  1  0.59051  0.45653  0.79221  1
 O  O3  1  0.45653  0.79221  0.59051  1
 O  O4  1  0.04347  0.90949  0.70779  1
 O  O5  1  0.90949  0.70779  0.04347  1
 O  O6  1  0.70779  0.04347  0.90949  1
 O  O7  1  0.20779  0.40949  0.54347  1
 O  O8  1  0.40949  0.54347  0.20779  1
 O  O9  1  0.54347  0.20779  0.40949  1
 O  O10  1  0.29221  0.95653  0.09051  1
 O  O11  1  0.95653  0.09051  0.29221  1
 O  O12  1  0.79221  0.59051  0.45653  1
 Rh  Rh1  1  0.50000  0.50000  0.50000  1
 Rh  Rh2  1  0.00000  0.00000  0.00000  1
 Sr  Sr1  1  0.61974  0.88026  0.25000  1
 Sr  Sr2  1  0.25000  0.61974  0.88026  1
 Sr  Sr3  1  0.88026  0.25000  0.61974  1
 Sr  Sr4  1  0.38026  0.11974  0.75000  1
 Sr  Sr5  1  0.11974  0.75000  0.38026  1
 Sr  Sr6  1  0.75000  0.38026  0.11974  1
