CIF file written using JARVIS-Tools package.
data_CrGe
_symmetry_space_group_name_H-M  'P2_13'
_cell_length_a       4.77088
_cell_length_b       4.77088
_cell_length_c       4.77088
_cell_angle_alpha    90
_cell_angle_beta     90
_cell_angle_gamma    90

_symmetry_Int_Tables_number  198
_chemical_formula_structural  CrGe
_chemical_formula_sum  Cr4Ge4
_cell_volume  108.59153584536493
_cell_formula_units_Z  4
loop_
  _symmetry_equiv_pos_site_id
 _symmetry_equiv_pos_as_xyz
 1  'x, y, z'
loop_
 _atom_site_type_symbol
 _atom_site_label
 _atom_site_symmetry_multiplicity
 _atom_site_fract_x
 _atom_site_fract_y
 _atom_site_fract_z
 _atom_site_fract_occupancy
 Cr  Cr1  1  0.13652  0.13652  0.13652  1
 Cr  Cr2  1  0.36348  0.86348  0.63652  1
 Cr  Cr3  1  0.63652  0.36348  0.86348  1
 Cr  Cr4  1  0.86348  0.63652  0.36348  1
 Ge  Ge1  1  0.84449  0.84449  0.84449  1
 Ge  Ge2  1  0.65551  0.15551  0.34449  1
 Ge  Ge3  1  0.34449  0.65551  0.15551  1
 Ge  Ge4  1  0.15551  0.34449  0.65551  1
