CIF file written using JARVIS-Tools package.
data_AlTlF4
_symmetry_space_group_name_H-M  'I4/mcm'
_cell_length_a       5.13132
_cell_length_b       5.13132
_cell_length_c       7.36203
_cell_angle_alpha    110.395
_cell_angle_beta     110.395
_cell_angle_gamma    90

_symmetry_Int_Tables_number  140
_chemical_formula_structural  AlTlF4
_chemical_formula_sum  Al2Tl2F8
_cell_volume  168.66740391676237
_cell_formula_units_Z  2
loop_
  _symmetry_equiv_pos_site_id
 _symmetry_equiv_pos_as_xyz
 1  'x, y, z'
loop_
 _atom_site_type_symbol
 _atom_site_label
 _atom_site_symmetry_multiplicity
 _atom_site_fract_x
 _atom_site_fract_y
 _atom_site_fract_z
 _atom_site_fract_occupancy
 Al  Al1  1  0.50000  0.50000  -0.00000  1
 Al  Al2  1  0.00000  0.00000  0.00000  1
 F  F1  1  0.63997  0.63997  0.27993  1
 F  F2  1  0.70168  0.79832  -0.00000  1
 F  F3  1  0.86003  0.86003  0.72007  1
 F  F4  1  0.36003  0.36003  0.72007  1
 F  F5  1  0.79832  0.29832  0.00000  1
 F  F6  1  0.29832  0.20168  0.00000  1
 F  F7  1  0.20168  0.70168  -0.00000  1
 F  F8  1  0.13997  0.13997  0.27993  1
 Tl  Tl1  1  0.25000  0.75000  0.50000  1
 Tl  Tl2  1  0.75000  0.25000  0.50000  1
