CIF file written using JARVIS-Tools package.
data_UAs
_symmetry_space_group_name_H-M  'Fm-3m'
_cell_length_a       4.08804
_cell_length_b       4.08805
_cell_length_c       4.08805
_cell_angle_alpha    60.0001
_cell_angle_beta     60
_cell_angle_gamma    60

_symmetry_Int_Tables_number  225
_chemical_formula_structural  UAs
_chemical_formula_sum  UAs
_cell_volume  48.30949879041422
_cell_formula_units_Z  1
loop_
  _symmetry_equiv_pos_site_id
 _symmetry_equiv_pos_as_xyz
 1  'x, y, z'
loop_
 _atom_site_type_symbol
 _atom_site_label
 _atom_site_symmetry_multiplicity
 _atom_site_fract_x
 _atom_site_fract_y
 _atom_site_fract_z
 _atom_site_fract_occupancy
 As  As1  1  0.00000  0.00000  0.00000  1
 U  U1  1  0.50000  0.50000  0.50000  1
