CIF file written using JARVIS-Tools package.
data_K3CrO8
_symmetry_space_group_name_H-M  'I-42m'
_cell_length_a       6.07693
_cell_length_b       6.07693
_cell_length_c       6.07693
_cell_angle_alpha    102.795
_cell_angle_beta     112.909
_cell_angle_gamma    112.909

_symmetry_Int_Tables_number  121
_chemical_formula_structural  K3CrO8
_chemical_formula_sum  K3CrO8
_cell_volume  171.02435696606034
_cell_formula_units_Z  1
loop_
  _symmetry_equiv_pos_site_id
 _symmetry_equiv_pos_as_xyz
 1  'x, y, z'
loop_
 _atom_site_type_symbol
 _atom_site_label
 _atom_site_symmetry_multiplicity
 _atom_site_fract_x
 _atom_site_fract_y
 _atom_site_fract_z
 _atom_site_fract_occupancy
 Cr  Cr1  1  0.00000  0.00000  0.00000  1
 K  K1  1  0.50000  0.25000  0.75000  1
 K  K2  1  0.50000  0.75000  0.25000  1
 K  K3  1  0.00000  0.50000  0.50000  1
 O  O1  1  0.58547  0.80750  0.80750  1
 O  O2  1  -0.00000  0.19250  0.77797  1
 O  O3  1  -0.00000  0.77797  0.19250  1
 O  O4  1  0.41453  0.22203  0.22203  1
 O  O5  1  0.26844  0.31773  0.31773  1
 O  O6  1  -0.00000  0.68227  0.95071  1
 O  O7  1  0.00000  0.95071  0.68227  1
 O  O8  1  0.73156  0.04929  0.04929  1
