CIF file written using JARVIS-Tools package.
data_PuSi
_symmetry_space_group_name_H-M  'Pnma'
_cell_length_a       3.8661
_cell_length_b       5.65826
_cell_length_c       8.04851
_cell_angle_alpha    90
_cell_angle_beta     90
_cell_angle_gamma    90

_symmetry_Int_Tables_number  62
_chemical_formula_structural  PuSi
_chemical_formula_sum  Pu4Si4
_cell_volume  176.0644462758835
_cell_formula_units_Z  4
loop_
  _symmetry_equiv_pos_site_id
 _symmetry_equiv_pos_as_xyz
 1  'x, y, z'
loop_
 _atom_site_type_symbol
 _atom_site_label
 _atom_site_symmetry_multiplicity
 _atom_site_fract_x
 _atom_site_fract_y
 _atom_site_fract_z
 _atom_site_fract_occupancy
 Pu  Pu1  1  0.25000  0.38992  0.68214  1
 Pu  Pu2  1  0.75000  0.61008  0.31786  1
 Pu  Pu3  1  0.75000  0.88992  0.81786  1
 Pu  Pu4  1  0.25000  0.11008  0.18214  1
 Si  Si1  1  0.25000  0.87463  0.53124  1
 Si  Si2  1  0.75000  0.12537  0.46876  1
 Si  Si3  1  0.75000  0.37463  0.96876  1
 Si  Si4  1  0.25000  0.62537  0.03124  1
