CIF file written using JARVIS-Tools package.
data_Ba2CoB6O12
_symmetry_space_group_name_H-M  'R-3'
_cell_length_a       6.87736
_cell_length_b       6.87877
_cell_length_c       6.87897
_cell_angle_alpha    62.2963
_cell_angle_beta     62.3006
_cell_angle_gamma    62.3017

_symmetry_Int_Tables_number  148
_chemical_formula_structural  Ba2CoB6O12
_chemical_formula_sum  Ba2CoB6O2
_cell_volume  241.9228602308078
_cell_formula_units_Z  1
loop_
  _symmetry_equiv_pos_site_id
 _symmetry_equiv_pos_as_xyz
 1  'x, y, z'
loop_
 _atom_site_type_symbol
 _atom_site_label
 _atom_site_symmetry_multiplicity
 _atom_site_fract_x
 _atom_site_fract_y
 _atom_site_fract_z
 _atom_site_fract_occupancy
 B  B1  1  0.24185  0.63555  0.35475  1
 B  B2  1  0.75815  0.36445  0.64525  1
 B  B3  1  0.64537  0.75803  0.36445  1
 B  B4  1  0.35463  0.24197  0.63555  1
 B  B5  1  0.36455  0.64528  0.75806  1
 B  B6  1  0.63545  0.35472  0.24194  1
 Ba  Ba1  1  0.78802  0.78807  0.78809  1
 Ba  Ba2  1  0.21198  0.21193  0.21191  1
 Co  Co1  1  0.00000  0.00000  0.00000  1
 O  O1  1  0.19519  0.46293  0.57244  1
 O  O2  1  0.84195  0.31506  0.08243  1
 O  O3  1  0.80481  0.53707  0.42756  1
 O  O4  1  0.68500  0.91754  0.15796  1
 O  O5  1  0.91767  0.15797  0.68491  1
 O  O6  1  0.08233  0.84203  0.31509  1
 O  O7  1  0.15805  0.68494  0.91757  1
 O  O8  1  0.31500  0.08246  0.84204  1
 O  O9  1  0.46278  0.57238  0.19528  1
 O  O10  1  0.57228  0.19526  0.46286  1
 O  O11  1  0.53722  0.42762  0.80472  1
 O  O12  1  0.42772  0.80474  0.53714  1
