CIF file written using JARVIS-Tools package.
data_MgH2
_symmetry_space_group_name_H-M  'Pbcn'
_cell_length_a       4.49138
_cell_length_b       4.92639
_cell_length_c       5.43953
_cell_angle_alpha    90
_cell_angle_beta     90
_cell_angle_gamma    90

_symmetry_Int_Tables_number  60
_chemical_formula_structural  MgH2
_chemical_formula_sum  Mg4H8
_cell_volume  120.35663679871979
_cell_formula_units_Z  4
loop_
  _symmetry_equiv_pos_site_id
 _symmetry_equiv_pos_as_xyz
 1  'x, y, z'
loop_
 _atom_site_type_symbol
 _atom_site_label
 _atom_site_symmetry_multiplicity
 _atom_site_fract_x
 _atom_site_fract_y
 _atom_site_fract_z
 _atom_site_fract_occupancy
 H  H1  1  0.72859  0.41925  0.88911  1
 H  H2  1  0.22859  0.58075  0.61089  1
 H  H3  1  0.77141  0.91925  0.61089  1
 H  H4  1  0.27141  0.08075  0.88911  1
 H  H5  1  0.72859  0.91925  0.11089  1
 H  H6  1  0.22859  0.08075  0.38911  1
 H  H7  1  0.77141  0.41925  0.38911  1
 H  H8  1  0.27141  0.58075  0.11089  1
 Mg  Mg1  1  0.50000  0.75000  0.83466  1
 Mg  Mg2  1  0.00000  0.25000  0.66534  1
 Mg  Mg3  1  0.50000  0.25000  0.16534  1
 Mg  Mg4  1  0.00000  0.75000  0.33466  1
