CIF file written using JARVIS-Tools package.
data_LiH2N
_symmetry_space_group_name_H-M  'I-4'
_cell_length_a       4.93846
_cell_length_b       4.93846
_cell_length_c       6.21119
_cell_angle_alpha    113.425
_cell_angle_beta     113.425
_cell_angle_gamma    90

_symmetry_Int_Tables_number  82
_chemical_formula_structural  LiH2N
_chemical_formula_sum  Li4H8N4
_cell_volume  125.27310105109541
_cell_formula_units_Z  4
loop_
  _symmetry_equiv_pos_site_id
 _symmetry_equiv_pos_as_xyz
 1  'x, y, z'
loop_
 _atom_site_type_symbol
 _atom_site_label
 _atom_site_symmetry_multiplicity
 _atom_site_fract_x
 _atom_site_fract_y
 _atom_site_fract_z
 _atom_site_fract_occupancy
 H  H1  1  0.70433  0.79263  0.24986  1
 H  H2  1  0.54277  0.29567  0.75014  1
 H  H3  1  0.20737  0.45447  0.75014  1
 H  H4  1  0.54553  0.45723  0.24986  1
 H  H5  1  0.96317  0.08410  0.38417  1
 H  H6  1  0.42100  0.30007  0.38417  1
 H  H7  1  0.91590  0.57900  0.61583  1
 H  H8  1  0.69993  0.03683  0.61583  1
 Li  Li1  1  0.25000  0.75000  0.50000  1
 Li  Li2  1  0.00772  0.50772  0.01544  1
 Li  Li3  1  0.49228  0.99228  0.98456  1
 Li  Li4  1  0.00000  0.00000  0.00000  1
 N  N1  1  0.34870  0.36134  0.23278  1
 N  N2  1  0.12856  0.65130  0.76722  1
 N  N3  1  0.63866  0.11592  0.76722  1
 N  N4  1  0.88408  0.87144  0.23278  1
