CIF file written using JARVIS-Tools package.
data_UGe2Ir2
_symmetry_space_group_name_H-M  'I4/mmm'
_cell_length_a       4.14121
_cell_length_b       4.1412
_cell_length_c       5.96622
_cell_angle_alpha    110.307
_cell_angle_beta     110.307
_cell_angle_gamma    90

_symmetry_Int_Tables_number  139
_chemical_formula_structural  UGe2Ir2
_chemical_formula_sum  UGe2Ir2
_cell_volume  89.14650045453601
_cell_formula_units_Z  1
loop_
  _symmetry_equiv_pos_site_id
 _symmetry_equiv_pos_as_xyz
 1  'x, y, z'
loop_
 _atom_site_type_symbol
 _atom_site_label
 _atom_site_symmetry_multiplicity
 _atom_site_fract_x
 _atom_site_fract_y
 _atom_site_fract_z
 _atom_site_fract_occupancy
 Ge  Ge1  1  0.61761  0.61761  0.23522  1
 Ge  Ge2  1  0.38239  0.38239  0.76478  1
 Ir  Ir1  1  0.75000  0.25000  0.50000  1
 Ir  Ir2  1  0.25000  0.75000  0.50000  1
 U  U1  1  0.00000  0.00000  0.00000  1
