CIF file written using JARVIS-Tools package.
data_CaCu2O4
_symmetry_space_group_name_H-M  'I4_1/amd'
_cell_length_a       5.50294
_cell_length_b       5.50294
_cell_length_c       7.27483
_cell_angle_alpha    112.223
_cell_angle_beta     112.223
_cell_angle_gamma    90

_symmetry_Int_Tables_number  141
_chemical_formula_structural  CaCu2O4
_chemical_formula_sum  Ca2Cu4O8
_cell_volume  186.13641370933024
_cell_formula_units_Z  2
loop_
  _symmetry_equiv_pos_site_id
 _symmetry_equiv_pos_as_xyz
 1  'x, y, z'
loop_
 _atom_site_type_symbol
 _atom_site_label
 _atom_site_symmetry_multiplicity
 _atom_site_fract_x
 _atom_site_fract_y
 _atom_site_fract_z
 _atom_site_fract_occupancy
 Ca  Ca1  1  0.37500  0.62500  0.75000  1
 Ca  Ca2  1  0.62500  0.37500  0.25000  1
 Cu  Cu1  1  0.00000  0.00000  0.50000  1
 Cu  Cu2  1  0.00000  0.50000  -0.00000  1
 Cu  Cu3  1  0.50000  0.00000  0.50000  1
 Cu  Cu4  1  0.00000  0.00000  0.00000  1
 O  O1  1  0.76080  0.78773  0.52160  1
 O  O2  1  0.76613  0.23920  0.97840  1
 O  O3  1  0.21227  0.23920  0.97840  1
 O  O4  1  0.23920  0.21227  0.47840  1
 O  O5  1  0.23920  0.76613  0.47840  1
 O  O6  1  0.23387  0.76080  0.02160  1
 O  O7  1  0.76080  0.23387  0.52160  1
 O  O8  1  0.78773  0.76080  0.02160  1
