CIF file written using JARVIS-Tools package.
data_LiCrSi2O6
_symmetry_space_group_name_H-M  'C2/c'
_cell_length_a       5.3297
_cell_length_b       6.47755
_cell_length_c       6.47755
_cell_angle_alpha    83.761
_cell_angle_beta     74.9048
_cell_angle_gamma    74.9047

_symmetry_Int_Tables_number  15
_chemical_formula_structural  LiCrSi2O6
_chemical_formula_sum  Li2Cr2Si4O2
_cell_volume  208.26002237263083
_cell_formula_units_Z  2
loop_
  _symmetry_equiv_pos_site_id
 _symmetry_equiv_pos_as_xyz
 1  'x, y, z'
loop_
 _atom_site_type_symbol
 _atom_site_label
 _atom_site_symmetry_multiplicity
 _atom_site_fract_x
 _atom_site_fract_y
 _atom_site_fract_z
 _atom_site_fract_occupancy
 Cr  Cr1  1  0.75000  0.90852  0.09148  1
 Cr  Cr2  1  0.25000  0.09148  0.90852  1
 Li  Li1  1  0.75000  0.25529  0.74471  1
 Li  Li2  1  0.25000  0.74471  0.25529  1
 O  O1  1  0.32935  0.36807  0.89390  1
 O  O2  1  0.67065  0.63193  0.10610  1
 O  O3  1  0.82935  0.89390  0.36807  1
 O  O4  1  0.35298  0.02927  0.20086  1
 O  O5  1  0.94876  0.35834  0.35768  1
 O  O6  1  0.85298  0.20086  0.02927  1
 O  O7  1  0.17065  0.10610  0.63193  1
 O  O8  1  0.55124  0.64232  0.64166  1
 O  O9  1  0.44876  0.35768  0.35834  1
 O  O10  1  0.05124  0.64166  0.64232  1
 O  O11  1  0.14702  0.79914  0.97073  1
 O  O12  1  0.64702  0.97073  0.79914  1
 Si  Si1  1  0.73623  0.39090  0.20736  1
 Si  Si2  1  0.26377  0.60910  0.79264  1
 Si  Si3  1  0.23623  0.20736  0.39090  1
 Si  Si4  1  0.76377  0.79264  0.60910  1
