CIF file written using JARVIS-Tools package.
data_Li3BO3
_symmetry_space_group_name_H-M  'P2_1/c'
_cell_length_a       3.23643
_cell_length_b       8.33727
_cell_length_c       9.17182
_cell_angle_alpha    90
_cell_angle_beta     90
_cell_angle_gamma    101.103

_symmetry_Int_Tables_number  14
_chemical_formula_structural  Li3BO3
_chemical_formula_sum  Li2B4O2
_cell_volume  242.85109612024155
_cell_formula_units_Z  4
loop_
  _symmetry_equiv_pos_site_id
 _symmetry_equiv_pos_as_xyz
 1  'x, y, z'
loop_
 _atom_site_type_symbol
 _atom_site_label
 _atom_site_symmetry_multiplicity
 _atom_site_fract_x
 _atom_site_fract_y
 _atom_site_fract_z
 _atom_site_fract_occupancy
 B  B1  1  0.19888  0.25490  0.18680  1
 B  B2  1  0.80112  0.74510  0.81320  1
 B  B3  1  0.19888  0.75490  0.31320  1
 B  B4  1  0.80112  0.24510  0.68680  1
 Li  Li1  1  0.09158  0.13199  0.92757  1
 Li  Li2  1  0.90842  0.36801  0.42757  1
 Li  Li3  1  0.90842  0.86801  0.07243  1
 Li  Li4  1  0.09158  0.63199  0.57243  1
 Li  Li5  1  0.50654  0.98289  0.76852  1
 Li  Li6  1  0.27630  0.11183  0.47636  1
 Li  Li7  1  0.27630  0.61183  0.02364  1
 Li  Li8  1  0.72370  0.88817  0.52364  1
 Li  Li9  1  0.50654  0.48289  0.73148  1
 Li  Li10  1  0.49346  0.01711  0.23148  1
 Li  Li11  1  0.49346  0.51711  0.26852  1
 Li  Li12  1  0.72370  0.38817  0.97636  1
 O  O1  1  0.36380  0.77939  0.17217  1
 O  O2  1  0.63620  0.72061  0.67217  1
 O  O3  1  0.77246  0.11106  0.59444  1
 O  O4  1  0.22754  0.38894  0.09444  1
 O  O5  1  0.22754  0.88894  0.40556  1
 O  O6  1  0.03017  0.09923  0.13761  1
 O  O7  1  0.96983  0.40077  0.63761  1
 O  O8  1  0.03017  0.59923  0.36239  1
 O  O9  1  0.96983  0.90077  0.86239  1
 O  O10  1  0.36380  0.27939  0.32783  1
 O  O11  1  0.77246  0.61106  0.90556  1
 O  O12  1  0.63620  0.22061  0.82783  1
