CIF file written using JARVIS-Tools package.
data_CrP
_symmetry_space_group_name_H-M  'Pnma'
_cell_length_a       3.095
_cell_length_b       5.36528
_cell_length_c       5.94913
_cell_angle_alpha    90
_cell_angle_beta     90
_cell_angle_gamma    90

_symmetry_Int_Tables_number  62
_chemical_formula_structural  CrP
_chemical_formula_sum  Cr4P4
_cell_volume  98.78840614832059
_cell_formula_units_Z  4
loop_
  _symmetry_equiv_pos_site_id
 _symmetry_equiv_pos_as_xyz
 1  'x, y, z'
loop_
 _atom_site_type_symbol
 _atom_site_label
 _atom_site_symmetry_multiplicity
 _atom_site_fract_x
 _atom_site_fract_y
 _atom_site_fract_z
 _atom_site_fract_occupancy
 Cr  Cr1  1  0.25000  0.50849  0.69079  1
 Cr  Cr2  1  0.75000  0.49151  0.30921  1
 Cr  Cr3  1  0.25000  0.00849  0.80921  1
 Cr  Cr4  1  0.75000  0.99151  0.19079  1
 P  P1  1  0.25000  0.68745  0.06687  1
 P  P2  1  0.75000  0.31255  0.93313  1
 P  P3  1  0.25000  0.18745  0.43313  1
 P  P4  1  0.75000  0.81255  0.56687  1
