CIF file written using JARVIS-Tools package.
data_CaMn2S4
_symmetry_space_group_name_H-M  'Fd-3m'
_cell_length_a       7.52352
_cell_length_b       7.52336
_cell_length_c       7.52409
_cell_angle_alpha    59.999
_cell_angle_beta     59.9995
_cell_angle_gamma    60.0001

_symmetry_Int_Tables_number  227
_chemical_formula_structural  CaMn2S4
_chemical_formula_sum  Ca2Mn4S8
_cell_volume  301.13920352592356
_cell_formula_units_Z  2
loop_
  _symmetry_equiv_pos_site_id
 _symmetry_equiv_pos_as_xyz
 1  'x, y, z'
loop_
 _atom_site_type_symbol
 _atom_site_label
 _atom_site_symmetry_multiplicity
 _atom_site_fract_x
 _atom_site_fract_y
 _atom_site_fract_z
 _atom_site_fract_occupancy
 Ca  Ca1  1  0.87499  0.87497  0.87501  1
 Ca  Ca2  1  0.12502  0.12503  0.12497  1
 Mn  Mn1  1  0.50000  0.50000  0.49999  1
 Mn  Mn2  1  0.50000  0.49998  0.00002  1
 Mn  Mn3  1  -0.00001  0.50001  0.50000  1
 Mn  Mn4  1  0.49999  0.00000  0.50001  1
 S  S1  1  0.73192  0.73191  0.73192  1
 S  S2  1  0.26807  0.26809  0.69579  1
 S  S3  1  0.26807  0.69578  0.26808  1
 S  S4  1  0.69580  0.26808  0.26808  1
 S  S5  1  0.73193  0.30422  0.73192  1
 S  S6  1  0.30422  0.73192  0.73193  1
 S  S7  1  0.26807  0.26808  0.26808  1
 S  S8  1  0.73193  0.73193  0.30420  1
