CIF file written using JARVIS-Tools package.
data_RbNiBr3
_symmetry_space_group_name_H-M  'P6_3/mmc'
_cell_length_a       7.27516
_cell_length_b       7.27516
_cell_length_c       6.18062
_cell_angle_alpha    90
_cell_angle_beta     90
_cell_angle_gamma    120

_symmetry_Int_Tables_number  194
_chemical_formula_structural  RbNiBr3
_chemical_formula_sum  Rb2Ni2Br6
_cell_volume  283.30034950780856
_cell_formula_units_Z  2
loop_
  _symmetry_equiv_pos_site_id
 _symmetry_equiv_pos_as_xyz
 1  'x, y, z'
loop_
 _atom_site_type_symbol
 _atom_site_label
 _atom_site_symmetry_multiplicity
 _atom_site_fract_x
 _atom_site_fract_y
 _atom_site_fract_z
 _atom_site_fract_occupancy
 Br  Br1  1  0.67718  0.83859  0.25000  1
 Br  Br2  1  0.83859  0.16141  0.75000  1
 Br  Br3  1  0.16141  0.83859  0.25000  1
 Br  Br4  1  0.32282  0.16141  0.75000  1
 Br  Br5  1  0.83859  0.67718  0.75000  1
 Br  Br6  1  0.16141  0.32282  0.25000  1
 Ni  Ni1  1  0.00000  0.00000  0.50000  1
 Ni  Ni2  1  0.00000  0.00000  0.00000  1
 Rb  Rb1  1  0.66667  0.33333  0.25000  1
 Rb  Rb2  1  0.33333  0.66667  0.75000  1
