CIF file written using JARVIS-Tools package.
data_SiO2
_symmetry_space_group_name_H-M  'I2_12_12_1'
_cell_length_a       4.21563
_cell_length_b       4.49461
_cell_length_c       8.40844
_cell_angle_alpha    105.501
_cell_angle_beta     104.518
_cell_angle_gamma    90

_symmetry_Int_Tables_number  24
_chemical_formula_structural  SiO2
_chemical_formula_sum  Si4O8
_cell_volume  148.2387837353688
_cell_formula_units_Z  4
loop_
  _symmetry_equiv_pos_site_id
 _symmetry_equiv_pos_as_xyz
 1  'x, y, z'
loop_
 _atom_site_type_symbol
 _atom_site_label
 _atom_site_symmetry_multiplicity
 _atom_site_fract_x
 _atom_site_fract_y
 _atom_site_fract_z
 _atom_site_fract_occupancy
 O  O1  1  0.11061  0.29756  0.74287  1
 O  O2  1  0.86774  0.20244  0.25713  1
 O  O3  1  0.38939  0.55470  0.25713  1
 O  O4  1  0.25000  0.06420  0.00000  1
 O  O5  1  0.08202  0.75000  0.50000  1
 O  O6  1  0.41798  0.25000  0.50000  1
 O  O7  1  0.75000  0.43580  -0.00000  1
 O  O8  1  0.63226  0.94531  0.74287  1
 Si  Si1  1  0.93721  0.18721  0.87441  1
 Si  Si2  1  0.18916  0.43916  0.37832  1
 Si  Si3  1  0.31084  0.06084  0.62168  1
 Si  Si4  1  0.56279  0.31280  0.12559  1
