CIF file written using JARVIS-Tools package.
data_BaZnF4
_symmetry_space_group_name_H-M  'Cmc2_1'
_cell_length_a       4.2762
_cell_length_b       5.86648
_cell_length_c       7.57888
_cell_angle_alpha    90
_cell_angle_beta     106.386
_cell_angle_gamma    90

_symmetry_Int_Tables_number  36
_chemical_formula_structural  BaZnF4
_chemical_formula_sum  Ba2Zn2F8
_cell_volume  182.4029402942385
_cell_formula_units_Z  2
loop_
  _symmetry_equiv_pos_site_id
 _symmetry_equiv_pos_as_xyz
 1  'x, y, z'
loop_
 _atom_site_type_symbol
 _atom_site_label
 _atom_site_symmetry_multiplicity
 _atom_site_fract_x
 _atom_site_fract_y
 _atom_site_fract_z
 _atom_site_fract_occupancy
 Ba  Ba1  1  0.85484  0.96292  0.70968  1
 Ba  Ba2  1  0.14516  0.46292  0.29032  1
 F  F1  1  0.92326  0.50908  0.84652  1
 F  F2  1  0.07674  0.00908  0.15348  1
 F  F3  1  0.47132  0.82548  0.94264  1
 F  F4  1  0.52868  0.32548  0.05736  1
 F  F5  1  0.69977  0.20456  0.39954  1
 F  F6  1  0.30023  0.70456  0.60046  1
 F  F7  1  0.67071  0.72778  0.34142  1
 F  F8  1  0.32929  0.22778  0.65858  1
 Zn  Zn1  1  0.41097  0.49867  0.82195  1
 Zn  Zn2  1  0.58903  0.99867  0.17805  1
