CIF file written using JARVIS-Tools package.
data_Ba2YCr3O7
_symmetry_space_group_name_H-M  'Pmmm'
_cell_length_a       3.92199
_cell_length_b       3.93177
_cell_length_c       11.5353
_cell_angle_alpha    90
_cell_angle_beta     90.0004
_cell_angle_gamma    90

_symmetry_Int_Tables_number  47
_chemical_formula_structural  Ba2YCr3O7
_chemical_formula_sum  Ba2YCr3O7
_cell_volume  177.87862120740326
_cell_formula_units_Z  1
loop_
  _symmetry_equiv_pos_site_id
 _symmetry_equiv_pos_as_xyz
 1  'x, y, z'
loop_
 _atom_site_type_symbol
 _atom_site_label
 _atom_site_symmetry_multiplicity
 _atom_site_fract_x
 _atom_site_fract_y
 _atom_site_fract_z
 _atom_site_fract_occupancy
 Ba  Ba1  1  0.50001  0.50000  0.17779  1
 Ba  Ba2  1  0.50001  0.50000  0.82222  1
 Cr  Cr1  1  0.99999  0.00000  0.34804  1
 Cr  Cr2  1  0.99999  0.00000  0.65196  1
 Cr  Cr3  1  0.00002  0.00000  0.00000  1
 O  O1  1  0.00003  0.50000  0.00000  1
 O  O2  1  0.49999  0.00000  0.37745  1
 O  O3  1  0.49999  0.00000  0.62254  1
 O  O4  1  0.99998  0.50000  0.37772  1
 O  O5  1  0.99999  0.50000  0.62228  1
 O  O6  1  0.00000  0.00000  0.17436  1
 O  O7  1  0.00001  0.00000  0.82564  1
 Y  Y1  1  0.49999  0.50000  0.50000  1
