CIF file written using JARVIS-Tools package.
data_FeSb2
_symmetry_space_group_name_H-M  'Pnnm'
_cell_length_a       3.30962
_cell_length_b       5.76652
_cell_length_c       6.53576
_cell_angle_alpha    90
_cell_angle_beta     90
_cell_angle_gamma    90

_symmetry_Int_Tables_number  58
_chemical_formula_structural  FeSb2
_chemical_formula_sum  Fe2Sb4
_cell_volume  124.73480609372739
_cell_formula_units_Z  2
loop_
  _symmetry_equiv_pos_site_id
 _symmetry_equiv_pos_as_xyz
 1  'x, y, z'
loop_
 _atom_site_type_symbol
 _atom_site_label
 _atom_site_symmetry_multiplicity
 _atom_site_fract_x
 _atom_site_fract_y
 _atom_site_fract_z
 _atom_site_fract_occupancy
 Fe  Fe1  1  0.00000  0.00000  0.00000  1
 Fe  Fe2  1  0.50000  0.50000  0.50000  1
 Sb  Sb1  1  0.00000  0.19773  0.35534  1
 Sb  Sb2  1  0.00000  0.80227  0.64466  1
 Sb  Sb3  1  0.50000  0.30227  0.85534  1
 Sb  Sb4  1  0.50000  0.69773  0.14466  1
