CIF file written using JARVIS-Tools package.
data_MgPt3O6
_symmetry_space_group_name_H-M  'Cmmm'
_cell_length_a       3.22172
_cell_length_b       6.13761
_cell_length_c       6.13761
_cell_angle_alpha    108.857
_cell_angle_beta     90
_cell_angle_gamma    90

_symmetry_Int_Tables_number  65
_chemical_formula_structural  MgPt3O6
_chemical_formula_sum  MgPt3O6
_cell_volume  114.84928720332266
_cell_formula_units_Z  1
loop_
  _symmetry_equiv_pos_site_id
 _symmetry_equiv_pos_as_xyz
 1  'x, y, z'
loop_
 _atom_site_type_symbol
 _atom_site_label
 _atom_site_symmetry_multiplicity
 _atom_site_fract_x
 _atom_site_fract_y
 _atom_site_fract_z
 _atom_site_fract_occupancy
 Mg  Mg1  1  0.00000  0.50000  0.50000  1
 O  O1  1  0.00000  0.91374  0.65982  1
 O  O2  1  0.00000  0.08626  0.34018  1
 O  O3  1  0.00000  0.65982  0.91374  1
 O  O4  1  0.00000  0.34018  0.08626  1
 O  O5  1  0.50000  0.35311  0.64689  1
 O  O6  1  0.50000  0.64689  0.35311  1
 Pt  Pt1  1  0.50000  0.50000  -0.00000  1
 Pt  Pt2  1  0.00000  0.00000  0.00000  1
 Pt  Pt3  1  0.50000  0.00000  0.50000  1
