CIF file written using JARVIS-Tools package.
data_MgWO4
_symmetry_space_group_name_H-M  'P2/c'
_cell_length_a       4.70793
_cell_length_b       5.72619
_cell_length_c       4.97216
_cell_angle_alpha    90
_cell_angle_beta     90.4972
_cell_angle_gamma    90

_symmetry_Int_Tables_number  13
_chemical_formula_structural  MgWO4
_chemical_formula_sum  Mg2W2O8
_cell_volume  134.03665494982607
_cell_formula_units_Z  2
loop_
  _symmetry_equiv_pos_site_id
 _symmetry_equiv_pos_as_xyz
 1  'x, y, z'
loop_
 _atom_site_type_symbol
 _atom_site_label
 _atom_site_symmetry_multiplicity
 _atom_site_fract_x
 _atom_site_fract_y
 _atom_site_fract_z
 _atom_site_fract_occupancy
 Mg  Mg1  1  0.50000  0.33018  0.25000  1
 Mg  Mg2  1  0.50000  0.66982  0.75000  1
 O  O1  1  0.25813  0.37768  0.90093  1
 O  O2  1  0.74187  0.37768  0.59907  1
 O  O3  1  0.74187  0.62232  0.09907  1
 O  O4  1  0.25813  0.62232  0.40093  1
 O  O5  1  0.21708  0.89210  0.93476  1
 O  O6  1  0.78292  0.89210  0.56524  1
 O  O7  1  0.78292  0.10790  0.06524  1
 O  O8  1  0.21708  0.10790  0.43476  1
 W  W1  1  0.00000  0.81879  0.25000  1
 W  W2  1  0.00000  0.18121  0.75000  1
