CIF file written using JARVIS-Tools package.
data_SrCu2GeS4
_symmetry_space_group_name_H-M  'P3_221'
_cell_length_a       6.17541
_cell_length_b       6.17541
_cell_length_c       15.3175
_cell_angle_alpha    90
_cell_angle_beta     90
_cell_angle_gamma    120

_symmetry_Int_Tables_number  154
_chemical_formula_structural  SrCu2GeS4
_chemical_formula_sum  Sr3Cu6Ge3S2
_cell_volume  505.88079278555756
_cell_formula_units_Z  3
loop_
  _symmetry_equiv_pos_site_id
 _symmetry_equiv_pos_as_xyz
 1  'x, y, z'
loop_
 _atom_site_type_symbol
 _atom_site_label
 _atom_site_symmetry_multiplicity
 _atom_site_fract_x
 _atom_site_fract_y
 _atom_site_fract_z
 _atom_site_fract_occupancy
 Cu  Cu1  1  0.67462  0.59218  0.16201  1
 Cu  Cu2  1  0.25892  0.00799  0.33891  1
 Cu  Cu3  1  0.74906  0.74108  0.67224  1
 Cu  Cu4  1  0.40782  0.08244  0.82867  1
 Cu  Cu5  1  0.91756  0.32538  0.49534  1
 Cu  Cu6  1  0.99201  0.25094  0.00558  1
 Ge  Ge1  1  0.04596  0.37928  0.75046  1
 Ge  Ge2  1  0.33332  0.95404  0.08380  1
 Ge  Ge3  1  0.62072  0.66668  0.41713  1
 S  S1  1  0.36693  0.19555  0.19913  1
 S  S2  1  0.83808  0.13778  0.63513  1
 S  S3  1  0.29970  0.16192  0.96846  1
 S  S4  1  0.99574  0.56516  0.08613  1
 S  S5  1  0.56943  0.00426  0.41947  1
 S  S6  1  0.43484  0.43057  0.75280  1
 S  S7  1  0.86222  0.70030  0.30179  1
 S  S8  1  0.23184  0.32907  0.41480  1
 S  S9  1  0.09724  0.76816  0.74813  1
 S  S10  1  0.82862  0.63307  0.53246  1
 S  S11  1  0.80445  0.17138  0.86579  1
 S  S12  1  0.67093  0.90276  0.08147  1
 Sr  Sr1  1  0.88775  0.22110  0.25047  1
 Sr  Sr2  1  0.33334  0.11225  0.58380  1
 Sr  Sr3  1  0.77890  0.66666  0.91713  1
