CIF file written using JARVIS-Tools package.
data_NaAlH4
_symmetry_space_group_name_H-M  'I4_1/a'
_cell_length_a       4.97879
_cell_length_b       4.97879
_cell_length_c       6.58376
_cell_angle_alpha    112.217
_cell_angle_beta     112.217
_cell_angle_gamma    89.9999

_symmetry_Int_Tables_number  88
_chemical_formula_structural  NaAlH4
_chemical_formula_sum  Na2Al2H8
_cell_volume  137.9082065838882
_cell_formula_units_Z  2
loop_
  _symmetry_equiv_pos_site_id
 _symmetry_equiv_pos_as_xyz
 1  'x, y, z'
loop_
 _atom_site_type_symbol
 _atom_site_label
 _atom_site_symmetry_multiplicity
 _atom_site_fract_x
 _atom_site_fract_y
 _atom_site_fract_z
 _atom_site_fract_occupancy
 Al  Al1  1  0.62500  0.87500  0.25000  1
 Al  Al2  1  0.37500  0.12500  0.75000  1
 H  H1  1  0.69352  0.34626  0.91094  1
 H  H2  1  0.56468  0.19352  0.41094  1
 H  H3  1  0.84626  0.71742  0.41094  1
 H  H4  1  0.21742  0.06468  0.91094  1
 H  H5  1  0.78258  0.93532  0.08906  1
 H  H6  1  0.15374  0.28258  0.58906  1
 H  H7  1  0.43532  0.80648  0.58906  1
 H  H8  1  0.30648  0.65374  0.08906  1
 Na  Na1  1  0.12500  0.37500  0.25000  1
 Na  Na2  1  0.87500  0.62500  0.75000  1
