CIF file written using JARVIS-Tools package.
data_SrSiN2
_symmetry_space_group_name_H-M  'P2_1/c'
_cell_length_a       5.53905
_cell_length_b       7.34447
_cell_length_c       5.97688
_cell_angle_alpha    90
_cell_angle_beta     112.92
_cell_angle_gamma    90

_symmetry_Int_Tables_number  14
_chemical_formula_structural  SrSiN2
_chemical_formula_sum  Sr4Si4N8
_cell_volume  223.95145848732204
_cell_formula_units_Z  4
loop_
  _symmetry_equiv_pos_site_id
 _symmetry_equiv_pos_as_xyz
 1  'x, y, z'
loop_
 _atom_site_type_symbol
 _atom_site_label
 _atom_site_symmetry_multiplicity
 _atom_site_fract_x
 _atom_site_fract_y
 _atom_site_fract_z
 _atom_site_fract_occupancy
 N  N1  1  0.11106  0.72031  0.78328  1
 N  N2  1  0.38894  0.22031  0.21672  1
 N  N3  1  0.88894  0.27969  0.21672  1
 N  N4  1  0.61106  0.77969  0.78328  1
 N  N5  1  0.91933  0.08846  0.79131  1
 N  N6  1  0.41933  0.41154  0.79131  1
 N  N7  1  0.08067  0.91154  0.20869  1
 N  N8  1  0.58067  0.58846  0.20869  1
 Si  Si1  1  0.93035  0.85812  0.89299  1
 Si  Si2  1  0.06965  0.14188  0.10701  1
 Si  Si3  1  0.56965  0.35812  0.10701  1
 Si  Si4  1  0.43035  0.64188  0.89299  1
 Sr  Sr1  1  0.32353  0.07427  0.66023  1
 Sr  Sr2  1  0.17647  0.57427  0.33977  1
 Sr  Sr3  1  0.67647  0.92573  0.33977  1
 Sr  Sr4  1  0.82353  0.42573  0.66023  1
