CIF file written using JARVIS-Tools package.
data_Tl2CS3
_symmetry_space_group_name_H-M  'C2/c'
_cell_length_a       6.44823
_cell_length_b       6.50263
_cell_length_c       8.85916
_cell_angle_alpha    72.022
_cell_angle_beta     68.6583
_cell_angle_gamma    60.2764

_symmetry_Int_Tables_number  15
_chemical_formula_structural  Tl2CS3
_chemical_formula_sum  Tl4C2S6
_cell_volume  296.6736040815419
_cell_formula_units_Z  2
loop_
  _symmetry_equiv_pos_site_id
 _symmetry_equiv_pos_as_xyz
 1  'x, y, z'
loop_
 _atom_site_type_symbol
 _atom_site_label
 _atom_site_symmetry_multiplicity
 _atom_site_fract_x
 _atom_site_fract_y
 _atom_site_fract_z
 _atom_site_fract_occupancy
 C  C1  1  0.94798  0.75000  0.25000  1
 C  C2  1  0.05202  0.25000  0.75000  1
 S  S1  1  0.19732  0.68939  0.08184  1
 S  S2  1  0.68067  0.75000  0.25000  1
 S  S3  1  0.80268  0.31061  0.91816  1
 S  S4  1  0.96856  0.81061  0.41816  1
 S  S5  1  0.03144  0.18939  0.58184  1
 S  S6  1  0.31933  0.25000  0.75000  1
 Tl  Tl1  1  0.52230  0.68721  0.63130  1
 Tl  Tl2  1  0.47770  0.31279  0.36870  1
 Tl  Tl3  1  0.15918  0.18721  0.13130  1
 Tl  Tl4  1  0.84082  0.81279  0.86870  1
