CIF file written using JARVIS-Tools package.
data_Sr3DyRhO6
_symmetry_space_group_name_H-M  'R-3c'
_cell_length_a       6.81892
_cell_length_b       6.81892
_cell_length_c       6.81892
_cell_angle_alpha    92.0131
_cell_angle_beta     92.0131
_cell_angle_gamma    92.0131

_symmetry_Int_Tables_number  167
_chemical_formula_structural  Sr3DyRhO6
_chemical_formula_sum  Sr6Dy2Rh2O2
_cell_volume  316.4630289620768
_cell_formula_units_Z  2
loop_
  _symmetry_equiv_pos_site_id
 _symmetry_equiv_pos_as_xyz
 1  'x, y, z'
loop_
 _atom_site_type_symbol
 _atom_site_label
 _atom_site_symmetry_multiplicity
 _atom_site_fract_x
 _atom_site_fract_y
 _atom_site_fract_z
 _atom_site_fract_occupancy
 Dy  Dy1  1  0.25000  0.25000  0.25000  1
 Dy  Dy2  1  0.75000  0.75000  0.75000  1
 O  O1  1  0.08967  0.29215  0.95560  1
 O  O2  1  0.58967  0.45560  0.79215  1
 O  O3  1  0.45560  0.79215  0.58967  1
 O  O4  1  0.04440  0.91033  0.70785  1
 O  O5  1  0.91033  0.70785  0.04440  1
 O  O6  1  0.70785  0.04440  0.91033  1
 O  O7  1  0.20785  0.41033  0.54440  1
 O  O8  1  0.41033  0.54440  0.20785  1
 O  O9  1  0.54440  0.20785  0.41033  1
 O  O10  1  0.29215  0.95560  0.08967  1
 O  O11  1  0.95560  0.08967  0.29215  1
 O  O12  1  0.79215  0.58967  0.45560  1
 Rh  Rh1  1  0.50000  0.50000  0.50000  1
 Rh  Rh2  1  0.00000  0.00000  0.00000  1
 Sr  Sr1  1  0.61975  0.88025  0.25000  1
 Sr  Sr2  1  0.25000  0.61975  0.88025  1
 Sr  Sr3  1  0.88025  0.25000  0.61975  1
 Sr  Sr4  1  0.38025  0.11975  0.75000  1
 Sr  Sr5  1  0.11975  0.75000  0.38025  1
 Sr  Sr6  1  0.75000  0.38025  0.11975  1
