CIF file written using JARVIS-Tools package.
data_Li2MnPO4F
_symmetry_space_group_name_H-M  'P1'
_cell_length_a       5.35492
_cell_length_b       5.45613
_cell_length_c       7.43347
_cell_angle_alpha    106.987
_cell_angle_beta     108.618
_cell_angle_gamma    95.9067

_symmetry_Int_Tables_number  1
_chemical_formula_structural  Li2MnPO4F
_chemical_formula_sum  Li4Mn2P2O8F2
_cell_volume  192.17429989367486
_cell_formula_units_Z  2
loop_
  _symmetry_equiv_pos_site_id
 _symmetry_equiv_pos_as_xyz
 1  'x, y, z'
loop_
 _atom_site_type_symbol
 _atom_site_label
 _atom_site_symmetry_multiplicity
 _atom_site_fract_x
 _atom_site_fract_y
 _atom_site_fract_z
 _atom_site_fract_occupancy
 F  F1  1  0.17220  0.87584  0.27284  1
 F  F2  1  0.81954  0.11875  0.74687  1
 Li  Li1  1  0.74791  0.42897  0.66684  1
 Li  Li2  1  0.13607  0.53474  0.09772  1
 Li  Li3  1  0.52318  0.19151  0.86200  1
 Li  Li4  1  0.50156  0.90477  0.47722  1
 Mn  Mn1  1  0.00087  0.99660  0.01677  1
 Mn  Mn2  1  0.00810  0.00049  0.50107  1
 O  O1  1  0.69882  0.65105  0.39872  1
 O  O2  1  0.62393  0.76257  0.95317  1
 O  O3  1  0.85583  0.33694  0.14383  1
 O  O4  1  0.70577  0.19530  0.39755  1
 O  O5  1  0.34516  0.36393  0.66014  1
 O  O6  1  0.30710  0.83190  0.65130  1
 O  O7  1  0.10796  0.64719  0.86048  1
 O  O8  1  0.36884  0.27456  0.09338  1
 P  P1  1  0.65920  0.36535  0.25968  1
 P  P2  1  0.34586  0.65118  0.78183  1
