CIF file written using JARVIS-Tools package.
data_Sr2YTlCr2O7
_symmetry_space_group_name_H-M  'P4/mmm'
_cell_length_a       3.83475
_cell_length_b       3.83475
_cell_length_c       12.6288
_cell_angle_alpha    90
_cell_angle_beta     90
_cell_angle_gamma    90

_symmetry_Int_Tables_number  123
_chemical_formula_structural  Sr2YTlCr2O7
_chemical_formula_sum  Sr2YTlCr2O7
_cell_volume  185.71075042647385
_cell_formula_units_Z  1
loop_
  _symmetry_equiv_pos_site_id
 _symmetry_equiv_pos_as_xyz
 1  'x, y, z'
loop_
 _atom_site_type_symbol
 _atom_site_label
 _atom_site_symmetry_multiplicity
 _atom_site_fract_x
 _atom_site_fract_y
 _atom_site_fract_z
 _atom_site_fract_occupancy
 Cr  Cr1  1  0.00000  0.00000  0.35732  1
 Cr  Cr2  1  0.00000  0.00000  0.64268  1
 O  O1  1  0.00000  0.50000  0.38671  1
 O  O2  1  0.50000  0.00000  0.38671  1
 O  O3  1  0.00000  0.50000  0.61329  1
 O  O4  1  0.50000  0.00000  0.61329  1
 O  O5  1  0.00000  0.00000  0.20809  1
 O  O6  1  0.00000  0.00000  0.79191  1
 O  O7  1  0.50000  0.50000  0.00000  1
 Sr  Sr1  1  0.50000  0.50000  0.19438  1
 Sr  Sr2  1  0.50000  0.50000  0.80562  1
 Tl  Tl1  1  0.00000  0.00000  0.00000  1
 Y  Y1  1  0.50000  0.50000  0.50000  1
