CIF file written using JARVIS-Tools package.
data_TbSr3RhO6
_symmetry_space_group_name_H-M  'R-3c'
_cell_length_a       6.82726
_cell_length_b       6.82726
_cell_length_c       6.82726
_cell_angle_alpha    91.9553
_cell_angle_beta     91.9554
_cell_angle_gamma    91.9554

_symmetry_Int_Tables_number  167
_chemical_formula_structural  TbSr3RhO6
_chemical_formula_sum  Tb2Sr6Rh2O2
_cell_volume  317.6600227457618
_cell_formula_units_Z  2
loop_
  _symmetry_equiv_pos_site_id
 _symmetry_equiv_pos_as_xyz
 1  'x, y, z'
loop_
 _atom_site_type_symbol
 _atom_site_label
 _atom_site_symmetry_multiplicity
 _atom_site_fract_x
 _atom_site_fract_y
 _atom_site_fract_z
 _atom_site_fract_occupancy
 O  O1  1  0.08885  0.29204  0.95462  1
 O  O2  1  0.58885  0.45462  0.79204  1
 O  O3  1  0.45462  0.79204  0.58885  1
 O  O4  1  0.04538  0.91115  0.70796  1
 O  O5  1  0.91115  0.70796  0.04538  1
 O  O6  1  0.70796  0.04538  0.91115  1
 O  O7  1  0.20796  0.41115  0.54538  1
 O  O8  1  0.41115  0.54538  0.20796  1
 O  O9  1  0.54538  0.20796  0.41115  1
 O  O10  1  0.79204  0.58885  0.45462  1
 O  O11  1  0.29204  0.95462  0.08885  1
 O  O12  1  0.95462  0.08885  0.29204  1
 Rh  Rh1  1  0.50000  0.50000  0.50000  1
 Rh  Rh2  1  0.00000  0.00000  0.00000  1
 Sr  Sr1  1  0.61976  0.88024  0.25000  1
 Sr  Sr2  1  0.25000  0.61976  0.88024  1
 Sr  Sr3  1  0.88024  0.25000  0.61976  1
 Sr  Sr4  1  0.38024  0.11976  0.75000  1
 Sr  Sr5  1  0.11976  0.75000  0.38024  1
 Sr  Sr6  1  0.75000  0.38024  0.11976  1
 Tb  Tb1  1  0.75000  0.75000  0.75000  1
 Tb  Tb2  1  0.25000  0.25000  0.25000  1
