CIF file written using JARVIS-Tools package.
data_K4Re2Cl10O
_symmetry_space_group_name_H-M  'I4/mmm'
_cell_length_a       6.99635
_cell_length_b       6.99635
_cell_length_c       10.1006
_cell_angle_alpha    110.263
_cell_angle_beta     110.263
_cell_angle_gamma    90

_symmetry_Int_Tables_number  139
_chemical_formula_structural  K4Re2Cl10O
_chemical_formula_sum  K4Re2Cl0O
_cell_volume  431.0480906280889
_cell_formula_units_Z  1
loop_
  _symmetry_equiv_pos_site_id
 _symmetry_equiv_pos_as_xyz
 1  'x, y, z'
loop_
 _atom_site_type_symbol
 _atom_site_label
 _atom_site_symmetry_multiplicity
 _atom_site_fract_x
 _atom_site_fract_y
 _atom_site_fract_z
 _atom_site_fract_occupancy
 Cl  Cl1  1  0.35509  0.35509  0.22481  1
 Cl  Cl2  1  0.64491  0.13029  0.77519  1
 Cl  Cl3  1  0.24192  0.24192  0.48384  1
 Cl  Cl4  1  0.86971  0.35509  0.22481  1
 Cl  Cl5  1  0.86971  0.86971  0.22481  1
 Cl  Cl6  1  0.13029  0.64491  0.77519  1
 Cl  Cl7  1  0.64491  0.64491  0.77519  1
 Cl  Cl8  1  0.75808  0.75808  0.51616  1
 Cl  Cl9  1  0.13029  0.13029  0.77519  1
 Cl  Cl10  1  0.35509  0.86971  0.22481  1
 K  K1  1  0.00000  0.50000  0.00000  1
 K  K2  1  0.50000  0.00000  0.00000  1
 K  K3  1  0.25000  0.75000  0.50000  1
 K  K4  1  0.75000  0.25000  0.50000  1
 O  O1  1  0.00000  0.00000  0.00000  1
 Re  Re1  1  0.10526  0.10526  0.21053  1
 Re  Re2  1  0.89474  0.89474  0.78947  1
