CIF file written using JARVIS-Tools package.
data_Cu4Si2NiS7
_symmetry_space_group_name_H-M  'C2'
_cell_length_a       5.3033
_cell_length_b       6.36099
_cell_length_c       8.19217
_cell_angle_alpha    97.8701
_cell_angle_beta     89.9996
_cell_angle_gamma    114.637

_symmetry_Int_Tables_number  5
_chemical_formula_structural  Cu4Si2NiS7
_chemical_formula_sum  Cu4Si2NiS7
_cell_volume  248.33268388589025
_cell_formula_units_Z  1
loop_
  _symmetry_equiv_pos_site_id
 _symmetry_equiv_pos_as_xyz
 1  'x, y, z'
loop_
 _atom_site_type_symbol
 _atom_site_label
 _atom_site_symmetry_multiplicity
 _atom_site_fract_x
 _atom_site_fract_y
 _atom_site_fract_z
 _atom_site_fract_occupancy
 Cu  Cu1  1  0.12040  0.27997  0.43288  1
 Cu  Cu2  1  0.84035  0.72002  0.56714  1
 Cu  Cu3  1  0.70555  0.42015  0.13930  1
 Cu  Cu4  1  0.28531  0.57984  0.86069  1
 Ni  Ni1  1  0.00054  0.99999  -0.00001  1
 S  S1  1  0.94182  0.42868  0.64883  1
 S  S2  1  0.38802  0.27564  0.91411  1
 S  S3  1  0.67837  0.87479  0.78756  1
 S  S4  1  0.26901  -0.00001  0.50000  1
 S  S5  1  0.80362  0.12522  0.21245  1
 S  S6  1  0.51315  0.57132  0.35115  1
 S  S7  1  0.11240  0.72439  0.08590  1
 Si  Si1  1  0.58266  0.14889  0.71777  1
 Si  Si2  1  0.43379  0.85112  0.28223  1
