CIF file written using JARVIS-Tools package.
data_RbLiCrO4
_symmetry_space_group_name_H-M  'P31c'
_cell_length_a       5.38016
_cell_length_b       5.38016
_cell_length_c       9.21312
_cell_angle_alpha    90
_cell_angle_beta     90
_cell_angle_gamma    120

_symmetry_Int_Tables_number  159
_chemical_formula_structural  RbLiCrO4
_chemical_formula_sum  Rb2Li2Cr2O8
_cell_volume  230.95491827657779
_cell_formula_units_Z  2
loop_
  _symmetry_equiv_pos_site_id
 _symmetry_equiv_pos_as_xyz
 1  'x, y, z'
loop_
 _atom_site_type_symbol
 _atom_site_label
 _atom_site_symmetry_multiplicity
 _atom_site_fract_x
 _atom_site_fract_y
 _atom_site_fract_z
 _atom_site_fract_occupancy
 Cr  Cr1  1  0.33333  0.66667  0.79153  1
 Cr  Cr2  1  0.66667  0.33333  0.29153  1
 Li  Li1  1  0.66667  0.33333  0.68038  1
 Li  Li2  1  0.33333  0.66667  0.18038  1
 O  O1  1  0.61968  0.96525  0.73436  1
 O  O2  1  0.03475  0.65443  0.73436  1
 O  O3  1  0.34557  0.38032  0.73436  1
 O  O4  1  0.96525  0.61968  0.23436  1
 O  O5  1  0.66667  0.33333  0.47194  1
 O  O6  1  0.33333  0.66667  0.97194  1
 O  O7  1  0.38032  0.34557  0.23436  1
 O  O8  1  0.65443  0.03475  0.23436  1
 Rb  Rb1  1  0.00000  0.00000  0.49447  1
 Rb  Rb2  1  0.00000  0.00000  0.99447  1
