CIF file written using JARVIS-Tools package.
data_MgAl2H8
_symmetry_space_group_name_H-M  'P-3m1'
_cell_length_a       5.24318
_cell_length_b       5.24318
_cell_length_c       5.8225
_cell_angle_alpha    90
_cell_angle_beta     90
_cell_angle_gamma    120

_symmetry_Int_Tables_number  164
_chemical_formula_structural  MgAl2H8
_chemical_formula_sum  MgAl2H8
_cell_volume  138.62121520619456
_cell_formula_units_Z  1
loop_
  _symmetry_equiv_pos_site_id
 _symmetry_equiv_pos_as_xyz
 1  'x, y, z'
loop_
 _atom_site_type_symbol
 _atom_site_label
 _atom_site_symmetry_multiplicity
 _atom_site_fract_x
 _atom_site_fract_y
 _atom_site_fract_z
 _atom_site_fract_occupancy
 Al  Al1  1  0.33333  0.66667  0.30037  1
 Al  Al2  1  0.66667  0.33333  0.69963  1
 H  H1  1  0.83235  0.16765  0.80644  1
 H  H2  1  0.33531  0.16765  0.80644  1
 H  H3  1  0.83235  0.66469  0.80644  1
 H  H4  1  0.33333  0.66667  0.57673  1
 H  H5  1  0.66667  0.33333  0.42327  1
 H  H6  1  0.16765  0.83235  0.19356  1
 H  H7  1  0.66469  0.83235  0.19356  1
 H  H8  1  0.16765  0.33531  0.19356  1
 Mg  Mg1  1  0.00000  0.00000  0.00000  1
