CIF file written using JARVIS-Tools package.
data_LiFeAs2O7
_symmetry_space_group_name_H-M  'C2'
_cell_length_a       4.82296
_cell_length_b       5.36739
_cell_length_c       5.3674
_cell_angle_alpha    102.128
_cell_angle_beta     98.9703
_cell_angle_gamma    98.9692

_symmetry_Int_Tables_number  5
_chemical_formula_structural  LiFeAs2O7
_chemical_formula_sum  LiFeAs2O7
_cell_volume  131.5960279955676
_cell_formula_units_Z  1
loop_
  _symmetry_equiv_pos_site_id
 _symmetry_equiv_pos_as_xyz
 1  'x, y, z'
loop_
 _atom_site_type_symbol
 _atom_site_label
 _atom_site_symmetry_multiplicity
 _atom_site_fract_x
 _atom_site_fract_y
 _atom_site_fract_z
 _atom_site_fract_occupancy
 As  As1  1  0.59203  0.32010  0.24501  1
 As  As2  1  0.40797  0.75499  0.67990  1
 Fe  Fe1  1  -0.00000  0.87442  0.12558  1
 Li  Li1  1  0.00000  0.25246  0.74754  1
 O  O1  1  0.50000  0.45284  0.54716  1
 O  O2  1  0.27422  0.16265  0.04281  1
 O  O3  1  0.16755  0.64057  0.85247  1
 O  O4  1  0.83245  0.14753  0.35943  1
 O  O5  1  0.72578  0.95719  0.83735  1
 O  O6  1  0.73997  0.55845  0.11507  1
 O  O7  1  0.26003  0.88493  0.44155  1
