CIF file written using JARVIS-Tools package.
data_NaCO2
_symmetry_space_group_name_H-M  'P2_1/c'
_cell_length_a       3.42794
_cell_length_b       5.29072
_cell_length_c       10.3932
_cell_angle_alpha    90
_cell_angle_beta     92.1417
_cell_angle_gamma    90

_symmetry_Int_Tables_number  14
_chemical_formula_structural  NaCO2
_chemical_formula_sum  Na4C4O8
_cell_volume  188.3614354373427
_cell_formula_units_Z  4
loop_
  _symmetry_equiv_pos_site_id
 _symmetry_equiv_pos_as_xyz
 1  'x, y, z'
loop_
 _atom_site_type_symbol
 _atom_site_label
 _atom_site_symmetry_multiplicity
 _atom_site_fract_x
 _atom_site_fract_y
 _atom_site_fract_z
 _atom_site_fract_occupancy
 C  C1  1  0.88646  0.54293  0.43626  1
 C  C2  1  0.11354  0.04293  0.06374  1
 C  C3  1  0.11354  0.45707  0.56374  1
 C  C4  1  0.88646  0.95707  0.93626  1
 Na  Na1  1  0.69707  0.55649  0.14448  1
 Na  Na2  1  0.30293  0.05649  0.35552  1
 Na  Na3  1  0.30293  0.44351  0.85552  1
 Na  Na4  1  0.69707  0.94351  0.64448  1
 O  O1  1  0.82944  0.12179  0.84908  1
 O  O2  1  0.17056  0.62179  0.65092  1
 O  O3  1  0.17056  0.87821  0.15092  1
 O  O4  1  0.82944  0.37821  0.34908  1
 O  O5  1  0.77576  0.72913  0.93016  1
 O  O6  1  0.22424  0.22913  0.56984  1
 O  O7  1  0.22424  0.27087  0.06984  1
 O  O8  1  0.77576  0.77087  0.43016  1
