CIF file written using JARVIS-Tools package.
data_NiSO4
_symmetry_space_group_name_H-M  'Cmcm'
_cell_length_a       4.71101
_cell_length_b       4.711
_cell_length_c       6.28666
_cell_angle_alpha    90
_cell_angle_beta     90
_cell_angle_gamma    113.07

_symmetry_Int_Tables_number  63
_chemical_formula_structural  NiSO4
_chemical_formula_sum  Ni2S2O8
_cell_volume  128.36525304981052
_cell_formula_units_Z  2
loop_
  _symmetry_equiv_pos_site_id
 _symmetry_equiv_pos_as_xyz
 1  'x, y, z'
loop_
 _atom_site_type_symbol
 _atom_site_label
 _atom_site_symmetry_multiplicity
 _atom_site_fract_x
 _atom_site_fract_y
 _atom_site_fract_z
 _atom_site_fract_occupancy
 Ni  Ni1  1  0.00000  0.00000  0.50000  1
 Ni  Ni2  1  0.00000  0.00000  0.00000  1
 O  O1  1  0.23227  0.29790  0.75000  1
 O  O2  1  0.76773  0.70210  0.25000  1
 O  O3  1  0.29790  0.23227  0.25000  1
 O  O4  1  0.70210  0.76773  0.75000  1
 O  O5  1  0.25291  0.74709  0.94574  1
 O  O6  1  0.74709  0.25291  0.44574  1
 O  O7  1  0.74709  0.25291  0.05426  1
 O  O8  1  0.25291  0.74709  0.55426  1
 S  S1  1  0.64752  0.35248  0.25000  1
 S  S2  1  0.35248  0.64752  0.75000  1
