CIF file written using JARVIS-Tools package.
data_NaAgF4
_symmetry_space_group_name_H-M  'I4/mcm'
_cell_length_a       5.55078
_cell_length_b       5.55078
_cell_length_c       6.5648
_cell_angle_alpha    115.01
_cell_angle_beta     115.01
_cell_angle_gamma    90

_symmetry_Int_Tables_number  140
_chemical_formula_structural  NaAgF4
_chemical_formula_sum  Na2Ag2F8
_cell_volume  162.13515938533453
_cell_formula_units_Z  2
loop_
  _symmetry_equiv_pos_site_id
 _symmetry_equiv_pos_as_xyz
 1  'x, y, z'
loop_
 _atom_site_type_symbol
 _atom_site_label
 _atom_site_symmetry_multiplicity
 _atom_site_fract_x
 _atom_site_fract_y
 _atom_site_fract_z
 _atom_site_fract_occupancy
 Ag  Ag1  1  0.00000  0.50000  0.00000  1
 Ag  Ag2  1  0.50000  -0.00000  -0.00000  1
 F  F1  1  0.94866  0.44866  0.25589  1
 F  F2  1  0.69277  0.19277  0.74411  1
 F  F3  1  0.05134  0.55134  0.74411  1
 F  F4  1  0.19277  0.05134  0.74411  1
 F  F5  1  0.30723  0.80723  0.25589  1
 F  F6  1  0.44866  0.30723  0.25589  1
 F  F7  1  0.80723  0.94866  0.25589  1
 F  F8  1  0.55134  0.69277  0.74411  1
 Na  Na1  1  0.25000  0.25000  0.50000  1
 Na  Na2  1  0.75000  0.75000  0.50000  1
