CIF file written using JARVIS-Tools package.
data_DyInAu
_symmetry_space_group_name_H-M  'P-62m'
_cell_length_a       7.77575
_cell_length_b       7.77575
_cell_length_c       3.92672
_cell_angle_alpha    90
_cell_angle_beta     90
_cell_angle_gamma    120

_symmetry_Int_Tables_number  189
_chemical_formula_structural  DyInAu
_chemical_formula_sum  Dy3In3Au3
_cell_volume  205.61056140676948
_cell_formula_units_Z  3
loop_
  _symmetry_equiv_pos_site_id
 _symmetry_equiv_pos_as_xyz
 1  'x, y, z'
loop_
 _atom_site_type_symbol
 _atom_site_label
 _atom_site_symmetry_multiplicity
 _atom_site_fract_x
 _atom_site_fract_y
 _atom_site_fract_z
 _atom_site_fract_occupancy
 Au  Au1  1  0.33333  0.66667  0.00000  1
 Au  Au2  1  0.66667  0.33333  0.00000  1
 Au  Au3  1  0.00000  0.00000  0.50000  1
 Dy  Dy1  1  -0.00000  0.40219  0.50000  1
 Dy  Dy2  1  0.59781  0.59781  0.50000  1
 Dy  Dy3  1  0.40219  -0.00000  0.50000  1
 In  In1  1  0.26379  0.26379  0.00000  1
 In  In2  1  0.73621  -0.00000  0.00000  1
 In  In3  1  -0.00000  0.73621  0.00000  1
