CIF file written using JARVIS-Tools package.
data_BiO2
_symmetry_space_group_name_H-M  'P4_2/mnm'
_cell_length_a       6.28863
_cell_length_b       6.28861
_cell_length_c       7.16821
_cell_angle_alpha    55.2547
_cell_angle_beta     55.2545
_cell_angle_gamma    71.0443

_symmetry_Int_Tables_number  136
_chemical_formula_structural  BiO2
_chemical_formula_sum  Bi4O8
_cell_volume  191.39957163995481
_cell_formula_units_Z  4
loop_
  _symmetry_equiv_pos_site_id
 _symmetry_equiv_pos_as_xyz
 1  'x, y, z'
loop_
 _atom_site_type_symbol
 _atom_site_label
 _atom_site_symmetry_multiplicity
 _atom_site_fract_x
 _atom_site_fract_y
 _atom_site_fract_z
 _atom_site_fract_occupancy
 Bi  Bi1  1  0.12499  0.12499  0.87502  1
 Bi  Bi2  1  0.12501  0.12501  0.37498  1
 Bi  Bi3  1  0.62500  0.62500  0.12500  1
 Bi  Bi4  1  0.62500  0.62500  0.62500  1
 O  O1  1  0.31718  0.31718  0.43281  1
 O  O2  1  0.43280  0.81720  0.37499  1
 O  O3  1  0.31717  0.31717  0.93284  1
 O  O4  1  0.81720  0.43280  0.37499  1
 O  O5  1  0.43280  0.81720  0.87501  1
 O  O6  1  0.81720  0.43280  0.87501  1
 O  O7  1  0.93283  0.93283  0.31716  1
 O  O8  1  0.93282  0.93282  0.81719  1
