CIF file written using JARVIS-Tools package.
data_UFe2Si2
_symmetry_space_group_name_H-M  'I4/mmm'
_cell_length_a       3.95508
_cell_length_b       3.95508
_cell_length_c       5.40397
_cell_angle_alpha    111.466
_cell_angle_beta     111.466
_cell_angle_gamma    90

_symmetry_Int_Tables_number  139
_chemical_formula_structural  UFe2Si2
_chemical_formula_sum  UFe2Si2
_cell_volume  72.33184631256962
_cell_formula_units_Z  1
loop_
  _symmetry_equiv_pos_site_id
 _symmetry_equiv_pos_as_xyz
 1  'x, y, z'
loop_
 _atom_site_type_symbol
 _atom_site_label
 _atom_site_symmetry_multiplicity
 _atom_site_fract_x
 _atom_site_fract_y
 _atom_site_fract_z
 _atom_site_fract_occupancy
 Fe  Fe1  1  0.75000  0.25000  0.50000  1
 Fe  Fe2  1  0.25000  0.75000  0.50000  1
 Si  Si1  1  0.63034  0.63034  0.26068  1
 Si  Si2  1  0.36966  0.36966  0.73932  1
 U  U1  1  0.00000  0.00000  0.00000  1
