CIF file written using JARVIS-Tools package.
data_CeSiNi
_symmetry_space_group_name_H-M  'I4_1md'
_cell_length_a       4.01079
_cell_length_b       4.01079
_cell_length_c       7.59721
_cell_angle_alpha    105.305
_cell_angle_beta     105.305
_cell_angle_gamma    90

_symmetry_Int_Tables_number  109
_chemical_formula_structural  CeSiNi
_chemical_formula_sum  Ce2Si2Ni2
_cell_volume  113.37717686294206
_cell_formula_units_Z  2
loop_
  _symmetry_equiv_pos_site_id
 _symmetry_equiv_pos_as_xyz
 1  'x, y, z'
loop_
 _atom_site_type_symbol
 _atom_site_label
 _atom_site_symmetry_multiplicity
 _atom_site_fract_x
 _atom_site_fract_y
 _atom_site_fract_z
 _atom_site_fract_occupancy
 Ce  Ce1  1  0.75061  0.25061  0.50123  1
 Ce  Ce2  1  0.00061  0.00061  0.00123  1
 Ni  Ni1  1  0.58511  0.58511  0.17021  1
 Ni  Ni2  1  0.33511  0.83511  0.67021  1
 Si  Si1  1  0.16828  0.66828  0.33656  1
 Si  Si2  1  0.41828  0.41828  0.83656  1
