CIF file written using JARVIS-Tools package.
data_HoVO4
_symmetry_space_group_name_H-M  'I4_1/amd'
_cell_length_a       5.95021
_cell_length_b       5.95021
_cell_length_c       5.95021
_cell_angle_alpha    106.318
_cell_angle_beta     106.318
_cell_angle_gamma    115.981

_symmetry_Int_Tables_number  141
_chemical_formula_structural  HoVO4
_chemical_formula_sum  Ho2V2O8
_cell_volume  160.584355189696
_cell_formula_units_Z  2
loop_
  _symmetry_equiv_pos_site_id
 _symmetry_equiv_pos_as_xyz
 1  'x, y, z'
loop_
 _atom_site_type_symbol
 _atom_site_label
 _atom_site_symmetry_multiplicity
 _atom_site_fract_x
 _atom_site_fract_y
 _atom_site_fract_z
 _atom_site_fract_occupancy
 Ho  Ho1  1  0.12500  0.87500  0.25000  1
 Ho  Ho2  1  0.87500  0.12500  0.75000  1
 O  O1  1  0.80043  0.73624  0.43581  1
 O  O2  1  0.36462  0.80043  0.56419  1
 O  O3  1  0.73624  0.80043  0.93581  1
 O  O4  1  0.80043  0.36462  0.06419  1
 O  O5  1  0.63538  0.19957  0.43581  1
 O  O6  1  0.19957  0.26376  0.56419  1
 O  O7  1  0.26376  0.19957  0.06419  1
 O  O8  1  0.19957  0.63538  0.93581  1
 V  V1  1  0.37500  0.62500  0.75000  1
 V  V2  1  0.62500  0.37500  0.25000  1
