CIF file written using JARVIS-Tools package.
data_Na2SiO3
_symmetry_space_group_name_H-M  'Cmc2_1'
_cell_length_a       4.84222
_cell_length_b       6.10092
_cell_length_c       6.10753
_cell_angle_alpha    119.964
_cell_angle_beta     90
_cell_angle_gamma    90

_symmetry_Int_Tables_number  36
_chemical_formula_structural  Na2SiO3
_chemical_formula_sum  Na4Si2O6
_cell_volume  156.31194782127767
_cell_formula_units_Z  2
loop_
  _symmetry_equiv_pos_site_id
 _symmetry_equiv_pos_as_xyz
 1  'x, y, z'
loop_
 _atom_site_type_symbol
 _atom_site_label
 _atom_site_symmetry_multiplicity
 _atom_site_fract_x
 _atom_site_fract_y
 _atom_site_fract_z
 _atom_site_fract_occupancy
 Na  Na1  1  0.50207  0.50400  0.33143  1
 Na  Na2  1  0.50207  0.17258  0.66857  1
 Na  Na3  1  0.00207  0.49600  0.66857  1
 Na  Na4  1  0.00207  0.82742  0.33143  1
 O  O1  1  0.37846  0.08681  -0.00000  1
 O  O2  1  0.87846  0.91319  0.00000  1
 O  O3  1  0.48236  0.58014  0.73912  1
 O  O4  1  0.98236  0.41986  0.26088  1
 O  O5  1  0.48236  0.84102  0.26088  1
 O  O6  1  0.98236  0.15898  0.73912  1
 Si  Si1  1  0.53927  0.84106  0.00000  1
 Si  Si2  1  0.03927  0.15894  -0.00000  1
