CIF file written using JARVIS-Tools package.
data_Mo6PbSe8
_symmetry_space_group_name_H-M  'R-3'
_cell_length_a       6.87526
_cell_length_b       6.87526
_cell_length_c       6.87526
_cell_angle_alpha    88.9962
_cell_angle_beta     88.9962
_cell_angle_gamma    88.9962

_symmetry_Int_Tables_number  148
_chemical_formula_structural  Mo6PbSe8
_chemical_formula_sum  Mo6PbSe8
_cell_volume  324.8394294225203
_cell_formula_units_Z  1
loop_
  _symmetry_equiv_pos_site_id
 _symmetry_equiv_pos_as_xyz
 1  'x, y, z'
loop_
 _atom_site_type_symbol
 _atom_site_label
 _atom_site_symmetry_multiplicity
 _atom_site_fract_x
 _atom_site_fract_y
 _atom_site_fract_z
 _atom_site_fract_occupancy
 Mo  Mo1  1  0.24032  0.42168  0.56116  1
 Mo  Mo2  1  0.57832  0.43884  0.75968  1
 Mo  Mo3  1  0.43884  0.75968  0.57832  1
 Mo  Mo4  1  0.75968  0.57832  0.43884  1
 Mo  Mo5  1  0.42168  0.56116  0.24032  1
 Mo  Mo6  1  0.56116  0.24032  0.42168  1
 Pb  Pb1  1  0.00000  0.00000  0.00000  1
 Se  Se1  1  0.88044  0.25275  0.61765  1
 Se  Se2  1  0.25275  0.61765  0.88044  1
 Se  Se3  1  0.61765  0.88044  0.25275  1
 Se  Se4  1  0.11956  0.74725  0.38235  1
 Se  Se5  1  0.74725  0.38235  0.11956  1
 Se  Se6  1  0.38235  0.11956  0.74725  1
 Se  Se7  1  0.75698  0.75698  0.75698  1
 Se  Se8  1  0.24302  0.24302  0.24302  1
