CIF file written using JARVIS-Tools package.
data_CuBSe2
_symmetry_space_group_name_H-M  'I-42d'
_cell_length_a       5.33993
_cell_length_b       5.34003
_cell_length_c       6.14135
_cell_angle_alpha    115.77
_cell_angle_beta     115.77
_cell_angle_gamma    90.0011

_symmetry_Int_Tables_number  122
_chemical_formula_structural  CuBSe2
_chemical_formula_sum  Cu2B2Se4
_cell_volume  138.11082399475887
_cell_formula_units_Z  2
loop_
  _symmetry_equiv_pos_site_id
 _symmetry_equiv_pos_as_xyz
 1  'x, y, z'
loop_
 _atom_site_type_symbol
 _atom_site_label
 _atom_site_symmetry_multiplicity
 _atom_site_fract_x
 _atom_site_fract_y
 _atom_site_fract_z
 _atom_site_fract_occupancy
 B  B1  1  0.49997  0.49998  -0.00005  1
 B  B2  1  0.74998  0.24998  0.49996  1
 Cu  Cu1  1  0.00002  0.00003  0.00006  1
 Cu  Cu2  1  0.25003  0.75002  0.50004  1
 Se  Se1  1  0.82640  0.87498  0.25000  1
 Se  Se2  1  0.42360  0.37501  0.24999  1
 Se  Se3  1  0.62502  0.17360  0.75000  1
 Se  Se4  1  0.12498  0.57641  0.75000  1
