CIF file written using JARVIS-Tools package.
data_Rb3PdF5
_symmetry_space_group_name_H-M  'P4/mbm'
_cell_length_a       7.41738
_cell_length_b       7.41738
_cell_length_c       6.4491
_cell_angle_alpha    90
_cell_angle_beta     90
_cell_angle_gamma    90

_symmetry_Int_Tables_number  127
_chemical_formula_structural  Rb3PdF5
_chemical_formula_sum  Rb6Pd2F0
_cell_volume  354.8130577135047
_cell_formula_units_Z  2
loop_
  _symmetry_equiv_pos_site_id
 _symmetry_equiv_pos_as_xyz
 1  'x, y, z'
loop_
 _atom_site_type_symbol
 _atom_site_label
 _atom_site_symmetry_multiplicity
 _atom_site_fract_x
 _atom_site_fract_y
 _atom_site_fract_z
 _atom_site_fract_occupancy
 F  F1  1  0.86400  0.36400  0.21254  1
 F  F2  1  0.00000  0.00000  0.50000  1
 F  F3  1  0.86400  0.36400  0.78746  1
 F  F4  1  0.36400  0.13600  0.78746  1
 F  F5  1  0.13600  0.63600  0.78746  1
 F  F6  1  0.13600  0.63600  0.21254  1
 F  F7  1  0.63600  0.86400  0.21254  1
 F  F8  1  0.36400  0.13600  0.21254  1
 F  F9  1  0.50000  0.50000  0.50000  1
 F  F10  1  0.63600  0.86400  0.78746  1
 Pd  Pd1  1  0.00000  0.50000  0.00000  1
 Pd  Pd2  1  0.50000  0.00000  0.00000  1
 Rb  Rb1  1  0.67164  0.17164  0.50000  1
 Rb  Rb2  1  0.17164  0.32836  0.50000  1
 Rb  Rb3  1  0.82836  0.67164  0.50000  1
 Rb  Rb4  1  0.32836  0.82836  0.50000  1
 Rb  Rb5  1  0.50000  0.50000  0.00000  1
 Rb  Rb6  1  0.00000  0.00000  0.00000  1
