CIF file written using JARVIS-Tools package.
data_ZnSn2O4
_symmetry_space_group_name_H-M  'Fd-3m'
_cell_length_a       6.55991
_cell_length_b       6.55991
_cell_length_c       6.55973
_cell_angle_alpha    120.001
_cell_angle_beta     120.001
_cell_angle_gamma    89.9999

_symmetry_Int_Tables_number  227
_chemical_formula_structural  ZnSn2O4
_chemical_formula_sum  Zn2Sn4O8
_cell_volume  199.5973439887859
_cell_formula_units_Z  2
loop_
  _symmetry_equiv_pos_site_id
 _symmetry_equiv_pos_as_xyz
 1  'x, y, z'
loop_
 _atom_site_type_symbol
 _atom_site_label
 _atom_site_symmetry_multiplicity
 _atom_site_fract_x
 _atom_site_fract_y
 _atom_site_fract_z
 _atom_site_fract_occupancy
 O  O1  1  0.75394  0.76185  0.50788  1
 O  O2  1  0.75397  0.24606  0.99212  1
 O  O3  1  0.23815  0.24606  0.99212  1
 O  O4  1  0.24606  0.23815  0.49212  1
 O  O5  1  0.24606  0.75397  0.49212  1
 O  O6  1  0.24603  0.75394  0.00788  1
 O  O7  1  0.75394  0.24603  0.50788  1
 O  O8  1  0.76185  0.75394  0.00788  1
 Sn  Sn1  1  0.00000  0.00000  0.50000  1
 Sn  Sn2  1  -0.00000  0.50000  0.00000  1
 Sn  Sn3  1  0.50000  0.00000  0.50000  1
 Sn  Sn4  1  0.00000  0.00000  0.00000  1
 Zn  Zn1  1  0.37500  0.62500  0.75000  1
 Zn  Zn2  1  0.62500  0.37500  0.25000  1
