CIF file written using JARVIS-Tools package.
data_BPt
_symmetry_space_group_name_H-M  'P6_3/mmc'
_cell_length_a       3.81192
_cell_length_b       3.81192
_cell_length_c       3.5734
_cell_angle_alpha    90
_cell_angle_beta     90
_cell_angle_gamma    120

_symmetry_Int_Tables_number  194
_chemical_formula_structural  BPt
_chemical_formula_sum  B2Pt2
_cell_volume  44.96750979585939
_cell_formula_units_Z  2
loop_
  _symmetry_equiv_pos_site_id
 _symmetry_equiv_pos_as_xyz
 1  'x, y, z'
loop_
 _atom_site_type_symbol
 _atom_site_label
 _atom_site_symmetry_multiplicity
 _atom_site_fract_x
 _atom_site_fract_y
 _atom_site_fract_z
 _atom_site_fract_occupancy
 B  B1  1  0.00000  0.00000  0.00000  1
 B  B2  1  0.00000  0.00000  0.50000  1
 Pt  Pt1  1  0.33333  0.66667  0.25000  1
 Pt  Pt2  1  0.66667  0.33333  0.75000  1
