CIF file written using JARVIS-Tools package.
data_Dy2InAu2
_symmetry_space_group_name_H-M  'P4/mbm'
_cell_length_a       7.93337
_cell_length_b       7.93337
_cell_length_c       3.71646
_cell_angle_alpha    90
_cell_angle_beta     90
_cell_angle_gamma    90

_symmetry_Int_Tables_number  127
_chemical_formula_structural  Dy2InAu2
_chemical_formula_sum  Dy4In2Au4
_cell_volume  233.90752149359767
_cell_formula_units_Z  2
loop_
  _symmetry_equiv_pos_site_id
 _symmetry_equiv_pos_as_xyz
 1  'x, y, z'
loop_
 _atom_site_type_symbol
 _atom_site_label
 _atom_site_symmetry_multiplicity
 _atom_site_fract_x
 _atom_site_fract_y
 _atom_site_fract_z
 _atom_site_fract_occupancy
 Au  Au1  1  0.12951  0.62951  0.00000  1
 Au  Au2  1  0.62951  0.87049  0.00000  1
 Au  Au3  1  0.37049  0.12951  0.00000  1
 Au  Au4  1  0.87049  0.37049  0.00000  1
 Dy  Dy1  1  0.33095  0.83095  0.50000  1
 Dy  Dy2  1  0.83095  0.66905  0.50000  1
 Dy  Dy3  1  0.66905  0.16905  0.50000  1
 Dy  Dy4  1  0.16905  0.33095  0.50000  1
 In  In1  1  0.50000  0.50000  0.00000  1
 In  In2  1  0.00000  0.00000  0.00000  1
