CIF file written using JARVIS-Tools package.
data_Li2MnCSO7
_symmetry_space_group_name_H-M  'P2_1/m'
_cell_length_a       4.8184
_cell_length_b       6.38987
_cell_length_c       9.13149
_cell_angle_alpha    90
_cell_angle_beta     96.9964
_cell_angle_gamma    90

_symmetry_Int_Tables_number  11
_chemical_formula_structural  Li2MnCSO7
_chemical_formula_sum  Li4Mn2C2S2O4
_cell_volume  279.05564503933033
_cell_formula_units_Z  2
loop_
  _symmetry_equiv_pos_site_id
 _symmetry_equiv_pos_as_xyz
 1  'x, y, z'
loop_
 _atom_site_type_symbol
 _atom_site_label
 _atom_site_symmetry_multiplicity
 _atom_site_fract_x
 _atom_site_fract_y
 _atom_site_fract_z
 _atom_site_fract_occupancy
 C  C1  1  0.27282  0.25000  0.07082  1
 C  C2  1  0.72718  0.75000  0.92918  1
 Li  Li1  1  0.78354  0.48334  0.16803  1
 Li  Li2  1  0.78354  0.01666  0.16803  1
 Li  Li3  1  0.21646  0.51666  0.83197  1
 Li  Li4  1  0.21646  0.98334  0.83197  1
 Mn  Mn1  1  0.25575  0.25000  0.36612  1
 Mn  Mn2  1  0.74425  0.75000  0.63388  1
 O  O1  1  0.67760  0.75000  0.06374  1
 O  O2  1  0.97798  0.75000  0.89222  1
 O  O3  1  0.48144  0.25000  0.17947  1
 O  O4  1  0.12690  0.93666  0.31220  1
 O  O5  1  0.12690  0.56334  0.31220  1
 O  O6  1  0.02202  0.25000  0.10778  1
 O  O7  1  0.54731  0.75000  0.41318  1
 O  O8  1  0.87310  0.06334  0.68780  1
 O  O9  1  0.15067  0.75000  0.54696  1
 O  O10  1  0.87310  0.43666  0.68780  1
 O  O11  1  0.84933  0.25000  0.45304  1
 O  O12  1  0.51856  0.75000  0.82053  1
 O  O13  1  0.45269  0.25000  0.58682  1
 O  O14  1  0.32240  0.25000  0.93626  1
 S  S1  1  0.76511  0.25000  0.60323  1
 S  S2  1  0.23489  0.75000  0.39677  1
