CIF file written using JARVIS-Tools package.
data_Tm2Pb2O7
_symmetry_space_group_name_H-M  'Fd-3m'
_cell_length_a       7.5289
_cell_length_b       7.5289
_cell_length_c       7.5289
_cell_angle_alpha    60
_cell_angle_beta     90
_cell_angle_gamma    120

_symmetry_Int_Tables_number  227
_chemical_formula_structural  Tm2Pb2O7
_chemical_formula_sum  Tm4Pb4O4
_cell_volume  301.7736078124041
_cell_formula_units_Z  2
loop_
  _symmetry_equiv_pos_site_id
 _symmetry_equiv_pos_as_xyz
 1  'x, y, z'
loop_
 _atom_site_type_symbol
 _atom_site_label
 _atom_site_symmetry_multiplicity
 _atom_site_fract_x
 _atom_site_fract_y
 _atom_site_fract_z
 _atom_site_fract_occupancy
 O  O1  1  0.10295  0.75000  0.10295  1
 O  O2  1  0.89705  0.25000  0.35295  1
 O  O3  1  0.64705  0.29411  0.10295  1
 O  O4  1  0.35295  0.70589  0.89705  1
 O  O5  1  0.35295  0.25000  0.35295  1
 O  O6  1  0.89705  0.79411  0.35295  1
 O  O7  1  0.64705  0.75000  0.10295  1
 O  O8  1  0.62500  0.25000  0.62500  1
 O  O9  1  0.37500  0.75000  0.37500  1
 O  O10  1  0.64705  0.75000  0.64705  1
 O  O11  1  0.10295  0.75000  0.64705  1
 O  O12  1  0.10295  0.20589  0.64705  1
 O  O13  1  0.35295  0.25000  0.89705  1
 O  O14  1  0.89705  0.25000  0.89705  1
 Pb  Pb1  1  0.00000  0.00000  0.50000  1
 Pb  Pb2  1  0.00000  0.50000  -0.00000  1
 Pb  Pb3  1  0.50000  0.50000  -0.00000  1
 Pb  Pb4  1  0.00000  0.00000  0.00000  1
 Tm  Tm1  1  0.00000  0.50000  0.50000  1
 Tm  Tm2  1  0.50000  0.50000  0.50000  1
 Tm  Tm3  1  0.50000  0.00000  0.50000  1
 Tm  Tm4  1  0.50000  0.00000  0.00000  1
