CIF file written using JARVIS-Tools package.
data_CaP2Ir2
_symmetry_space_group_name_H-M  'P3_221'
_cell_length_a       6.66584
_cell_length_b       6.66584
_cell_length_c       7.13689
_cell_angle_alpha    90
_cell_angle_beta     90
_cell_angle_gamma    120

_symmetry_Int_Tables_number  154
_chemical_formula_structural  CaP2Ir2
_chemical_formula_sum  Ca3P6Ir6
_cell_volume  274.63108125054765
_cell_formula_units_Z  3
loop_
  _symmetry_equiv_pos_site_id
 _symmetry_equiv_pos_as_xyz
 1  'x, y, z'
loop_
 _atom_site_type_symbol
 _atom_site_label
 _atom_site_symmetry_multiplicity
 _atom_site_fract_x
 _atom_site_fract_y
 _atom_site_fract_z
 _atom_site_fract_occupancy
 Ca  Ca1  1  0.60656  0.00000  0.66667  1
 Ca  Ca2  1  0.00000  0.60656  0.33333  1
 Ca  Ca3  1  0.39344  0.39344  0.00000  1
 Ir  Ir1  1  0.13718  -0.00000  0.66667  1
 Ir  Ir2  1  -0.00000  0.13718  0.33333  1
 Ir  Ir3  1  0.51185  0.00000  0.16667  1
 Ir  Ir4  1  0.48815  0.48815  0.50000  1
 Ir  Ir5  1  0.00000  0.51185  0.83333  1
 Ir  Ir6  1  0.86282  0.86282  0.00000  1
 P  P1  1  0.77666  0.65968  0.71083  1
 P  P2  1  0.11698  0.34032  0.62251  1
 P  P3  1  0.65968  0.77666  0.28917  1
 P  P4  1  0.34032  0.11698  0.37749  1
 P  P5  1  0.88302  0.22334  0.04416  1
 P  P6  1  0.22334  0.88302  0.95584  1
