CIF file written using JARVIS-Tools package.
data_MnO2
_symmetry_space_group_name_H-M  'Fd-3m'
_cell_length_a       5.71944
_cell_length_b       5.71928
_cell_length_c       5.71948
_cell_angle_alpha    60.0008
_cell_angle_beta     59.9979
_cell_angle_gamma    60.0014

_symmetry_Int_Tables_number  227
_chemical_formula_structural  MnO2
_chemical_formula_sum  Mn4O8
_cell_volume  132.29279250690635
_cell_formula_units_Z  4
loop_
  _symmetry_equiv_pos_site_id
 _symmetry_equiv_pos_as_xyz
 1  'x, y, z'
loop_
 _atom_site_type_symbol
 _atom_site_label
 _atom_site_symmetry_multiplicity
 _atom_site_fract_x
 _atom_site_fract_y
 _atom_site_fract_z
 _atom_site_fract_occupancy
 Mn  Mn1  1  0.50000  0.50000  0.50000  1
 Mn  Mn2  1  0.00000  0.50000  0.50000  1
 Mn  Mn3  1  0.50000  0.50000  0.00000  1
 Mn  Mn4  1  0.50000  -0.00000  0.50000  1
 O  O1  1  0.29145  0.73618  0.73620  1
 O  O2  1  0.73617  0.73620  0.73618  1
 O  O3  1  0.73618  0.29145  0.73617  1
 O  O4  1  0.73620  0.73617  0.29145  1
 O  O5  1  0.26383  0.26380  0.26382  1
 O  O6  1  0.70855  0.26382  0.26380  1
 O  O7  1  0.26380  0.26383  0.70855  1
 O  O8  1  0.26382  0.70855  0.26383  1
