CIF file written using JARVIS-Tools package.
data_NaSr2AlP3
_symmetry_space_group_name_H-M  'C2/m'
_cell_length_a       8.1107
_cell_length_b       8.1107
_cell_length_c       11.5342
_cell_angle_alpha    76.1844
_cell_angle_beta     76.1844
_cell_angle_gamma    68.0952

_symmetry_Int_Tables_number  12
_chemical_formula_structural  NaSr2AlP3
_chemical_formula_sum  Na4Sr8Al4P2
_cell_volume  674.108430673264
_cell_formula_units_Z  4
loop_
  _symmetry_equiv_pos_site_id
 _symmetry_equiv_pos_as_xyz
 1  'x, y, z'
loop_
 _atom_site_type_symbol
 _atom_site_label
 _atom_site_symmetry_multiplicity
 _atom_site_fract_x
 _atom_site_fract_y
 _atom_site_fract_z
 _atom_site_fract_occupancy
 Al  Al1  1  0.90980  0.90980  0.11746  1
 Al  Al2  1  0.69702  0.69702  0.26862  1
 Al  Al3  1  0.09020  0.09020  0.88254  1
 Al  Al4  1  0.30298  0.30298  0.73138  1
 Na  Na1  1  0.69580  0.30420  0.00000  1
 Na  Na2  1  0.30420  0.69580  -0.00000  1
 Na  Na3  1  0.64698  0.64698  0.76452  1
 Na  Na4  1  0.35302  0.35302  0.23548  1
 P  P1  1  0.61131  0.02181  0.22845  1
 P  P2  1  0.91131  0.91131  0.51346  1
 P  P3  1  0.02181  0.61131  0.22845  1
 P  P4  1  0.41054  0.41054  0.86246  1
 P  P5  1  0.09070  0.09070  0.09539  1
 P  P6  1  0.90930  0.90930  0.90461  1
 P  P7  1  0.58750  0.58750  0.48973  1
 P  P8  1  0.08869  0.08869  0.48654  1
 P  P9  1  0.38869  0.97819  0.77155  1
 P  P10  1  0.41250  0.41250  0.51027  1
 P  P11  1  0.97819  0.38869  0.77155  1
 P  P12  1  0.58946  0.58946  0.13754  1
 Sr  Sr1  1  0.19297  0.74821  0.68584  1
 Sr  Sr2  1  0.50000  0.00000  0.50000  1
 Sr  Sr3  1  0.00000  0.50000  -0.00000  1
 Sr  Sr4  1  0.50000  0.00000  -0.00000  1
 Sr  Sr5  1  0.25179  0.80703  0.31416  1
 Sr  Sr6  1  0.00000  0.50000  0.50000  1
 Sr  Sr7  1  0.74821  0.19297  0.68584  1
 Sr  Sr8  1  0.80703  0.25179  0.31416  1
