CIF file written using JARVIS-Tools package.
data_LiCuO2
_symmetry_space_group_name_H-M  'P3m1'
_cell_length_a       2.96677
_cell_length_b       2.96677
_cell_length_c       5.03327
_cell_angle_alpha    90
_cell_angle_beta     90
_cell_angle_gamma    120

_symmetry_Int_Tables_number  156
_chemical_formula_structural  LiCuO2
_chemical_formula_sum  LiCuO2
_cell_volume  38.36634611889244
_cell_formula_units_Z  1
loop_
  _symmetry_equiv_pos_site_id
 _symmetry_equiv_pos_as_xyz
 1  'x, y, z'
loop_
 _atom_site_type_symbol
 _atom_site_label
 _atom_site_symmetry_multiplicity
 _atom_site_fract_x
 _atom_site_fract_y
 _atom_site_fract_z
 _atom_site_fract_occupancy
 Cu  Cu1  1  0.00000  0.00000  0.02805  1
 Li  Li1  1  0.66667  0.33333  0.59727  1
 O  O1  1  0.33333  0.66667  0.79670  1
 O  O2  1  0.66667  0.33333  0.22698  1
