CIF file written using JARVIS-Tools package.
data_CoB
_symmetry_space_group_name_H-M  'Pnma'
_cell_length_a       3.06114
_cell_length_b       3.91479
_cell_length_c       5.20751
_cell_angle_alpha    90
_cell_angle_beta     90
_cell_angle_gamma    90

_symmetry_Int_Tables_number  62
_chemical_formula_structural  CoB
_chemical_formula_sum  Co4B4
_cell_volume  62.405246458336975
_cell_formula_units_Z  4
loop_
  _symmetry_equiv_pos_site_id
 _symmetry_equiv_pos_as_xyz
 1  'x, y, z'
loop_
 _atom_site_type_symbol
 _atom_site_label
 _atom_site_symmetry_multiplicity
 _atom_site_fract_x
 _atom_site_fract_y
 _atom_site_fract_z
 _atom_site_fract_occupancy
 B  B1  1  0.25000  0.87728  0.53146  1
 B  B2  1  0.75000  0.12272  0.46854  1
 B  B3  1  0.75000  0.37728  0.96854  1
 B  B4  1  0.25000  0.62272  0.03146  1
 Co  Co1  1  0.25000  0.37467  0.67668  1
 Co  Co2  1  0.75000  0.62533  0.32332  1
 Co  Co3  1  0.75000  0.87467  0.82332  1
 Co  Co4  1  0.25000  0.12533  0.17668  1
