CIF file written using JARVIS-Tools package.
data_SnO2
_symmetry_space_group_name_H-M  'P4_2/mnm'
_cell_length_a       5.80096
_cell_length_b       5.80096
_cell_length_c       6.49132
_cell_angle_alpha    55.9786
_cell_angle_beta     55.9785
_cell_angle_gamma    71.7581

_symmetry_Int_Tables_number  136
_chemical_formula_structural  SnO2
_chemical_formula_sum  Sn4O8
_cell_volume  150.0586393965065
_cell_formula_units_Z  4
loop_
  _symmetry_equiv_pos_site_id
 _symmetry_equiv_pos_as_xyz
 1  'x, y, z'
loop_
 _atom_site_type_symbol
 _atom_site_label
 _atom_site_symmetry_multiplicity
 _atom_site_fract_x
 _atom_site_fract_y
 _atom_site_fract_z
 _atom_site_fract_occupancy
 O  O1  1  0.31885  0.31885  0.43116  1
 O  O2  1  0.43117  0.81889  0.37497  1
 O  O3  1  0.31885  0.31885  0.93113  1
 O  O4  1  0.81889  0.43117  0.37497  1
 O  O5  1  0.43111  0.81883  0.87503  1
 O  O6  1  0.81883  0.43111  0.87503  1
 O  O7  1  0.93115  0.93115  0.31887  1
 O  O8  1  0.93115  0.93115  0.81884  1
 Sn  Sn1  1  0.12498  0.12498  0.87502  1
 Sn  Sn2  1  0.12502  0.12502  0.37498  1
 Sn  Sn3  1  0.62500  0.62500  0.12500  1
 Sn  Sn4  1  0.62500  0.62500  0.62500  1
