CIF file written using JARVIS-Tools package.
data_Li2Cr3CoO8
_symmetry_space_group_name_H-M  'R3m'
_cell_length_a       5.79509
_cell_length_b       5.79509
_cell_length_c       5.7951
_cell_angle_alpha    60.023
_cell_angle_beta     60.023
_cell_angle_gamma    60.023

_symmetry_Int_Tables_number  160
_chemical_formula_structural  Li2Cr3CoO8
_chemical_formula_sum  Li2Cr3CoO8
_cell_volume  137.68689216846465
_cell_formula_units_Z  1
loop_
  _symmetry_equiv_pos_site_id
 _symmetry_equiv_pos_as_xyz
 1  'x, y, z'
loop_
 _atom_site_type_symbol
 _atom_site_label
 _atom_site_symmetry_multiplicity
 _atom_site_fract_x
 _atom_site_fract_y
 _atom_site_fract_z
 _atom_site_fract_occupancy
 Co  Co1  1  0.88013  0.88013  0.88013  1
 Cr  Cr1  1  0.01073  0.49721  0.49721  1
 Cr  Cr2  1  0.49721  0.49721  0.01073  1
 Cr  Cr3  1  0.49721  0.01073  0.49721  1
 Li  Li1  1  0.12188  0.12188  0.12188  1
 Li  Li2  1  0.50023  0.50023  0.50023  1
 O  O1  1  0.25878  0.25878  0.25878  1
 O  O2  1  0.24944  0.71359  0.24944  1
 O  O3  1  0.24944  0.24944  0.71359  1
 O  O4  1  0.71359  0.24944  0.24944  1
 O  O5  1  0.28276  0.74835  0.74835  1
 O  O6  1  0.74835  0.74835  0.28276  1
 O  O7  1  0.74835  0.28276  0.74835  1
 O  O8  1  0.74190  0.74190  0.74190  1
