CIF file written using JARVIS-Tools package.
data_GeAsSe
_symmetry_space_group_name_H-M  'Pnna'
_cell_length_a       5.16242
_cell_length_b       10.3592
_cell_length_c       11.8564
_cell_angle_alpha    90
_cell_angle_beta     90
_cell_angle_gamma    90

_symmetry_Int_Tables_number  52
_chemical_formula_structural  GeAsSe
_chemical_formula_sum  Ge8As8Se8
_cell_volume  634.0631913791648
_cell_formula_units_Z  8
loop_
  _symmetry_equiv_pos_site_id
 _symmetry_equiv_pos_as_xyz
 1  'x, y, z'
loop_
 _atom_site_type_symbol
 _atom_site_label
 _atom_site_symmetry_multiplicity
 _atom_site_fract_x
 _atom_site_fract_y
 _atom_site_fract_z
 _atom_site_fract_occupancy
 As  As1  1  0.92132  0.58560  0.87222  1
 As  As2  1  0.07868  0.41440  0.12778  1
 As  As3  1  0.07868  0.08560  0.37222  1
 As  As4  1  0.42132  0.91440  0.37222  1
 As  As5  1  0.42132  0.58560  0.12778  1
 As  As6  1  0.92132  0.91440  0.62778  1
 As  As7  1  0.57868  0.08560  0.62778  1
 As  As8  1  0.57868  0.41440  0.87222  1
 Ge  Ge1  1  0.25000  0.00000  0.76565  1
 Ge  Ge2  1  0.70481  0.75000  0.75000  1
 Ge  Ge3  1  0.20481  0.75000  0.25000  1
 Ge  Ge4  1  0.29519  0.25000  0.25000  1
 Ge  Ge5  1  0.75000  0.50000  0.26565  1
 Ge  Ge6  1  0.75000  0.00000  0.23435  1
 Ge  Ge7  1  0.25000  0.50000  0.73435  1
 Ge  Ge8  1  0.79519  0.25000  0.75000  1
 Se  Se1  1  0.42599  0.65711  0.60768  1
 Se  Se2  1  0.92599  0.84289  0.10768  1
 Se  Se3  1  0.92599  0.65711  0.39232  1
 Se  Se4  1  0.57401  0.34289  0.39232  1
 Se  Se5  1  0.57401  0.15711  0.10768  1
 Se  Se6  1  0.07401  0.15711  0.89232  1
 Se  Se7  1  0.07401  0.34289  0.60768  1
 Se  Se8  1  0.42599  0.84289  0.89232  1
