CIF file written using JARVIS-Tools package.
data_MnF4
_symmetry_space_group_name_H-M  'C2/m'
_cell_length_a       5.34483
_cell_length_b       4.56387
_cell_length_c       5.47321
_cell_angle_alpha    90.6222
_cell_angle_beta     119.162
_cell_angle_gamma    89.997

_symmetry_Int_Tables_number  12
_chemical_formula_structural  MnF4
_chemical_formula_sum  Mn2F8
_cell_volume  116.57651822777277
_cell_formula_units_Z  2
loop_
  _symmetry_equiv_pos_site_id
 _symmetry_equiv_pos_as_xyz
 1  'x, y, z'
loop_
 _atom_site_type_symbol
 _atom_site_label
 _atom_site_symmetry_multiplicity
 _atom_site_fract_x
 _atom_site_fract_y
 _atom_site_fract_z
 _atom_site_fract_occupancy
 F  F1  1  0.17658  0.74829  0.85367  1
 F  F2  1  0.65686  0.80386  0.31472  1
 F  F3  1  0.82445  0.25114  0.14883  1
 F  F4  1  0.32409  0.25143  0.14886  1
 F  F5  1  0.34417  0.19559  0.68780  1
 F  F6  1  -0.15642  0.29801  0.68657  1
 F  F7  1  0.67695  0.74802  0.85364  1
 F  F8  1  0.15744  0.70141  0.31595  1
 Mn  Mn1  1  0.50052  -0.00029  0.00125  1
 Mn  Mn2  1  0.00052  0.49972  0.00126  1
