CIF file written using JARVIS-Tools package.
data_NaIO4
_symmetry_space_group_name_H-M  'I4_1/a'
_cell_length_a       5.33008
_cell_length_b       5.33008
_cell_length_c       7.03301
_cell_angle_alpha    112.268
_cell_angle_beta     112.268
_cell_angle_gamma    90

_symmetry_Int_Tables_number  88
_chemical_formula_structural  NaIO4
_chemical_formula_sum  Na2I2O8
_cell_volume  168.6936630466805
_cell_formula_units_Z  2
loop_
  _symmetry_equiv_pos_site_id
 _symmetry_equiv_pos_as_xyz
 1  'x, y, z'
loop_
 _atom_site_type_symbol
 _atom_site_label
 _atom_site_symmetry_multiplicity
 _atom_site_fract_x
 _atom_site_fract_y
 _atom_site_fract_z
 _atom_site_fract_occupancy
 I  I1  1  0.12500  0.37500  0.25000  1
 I  I2  1  0.87500  0.62500  0.75000  1
 Na  Na1  1  0.62500  0.87500  0.25000  1
 Na  Na2  1  0.37500  0.12500  0.75000  1
 O  O1  1  0.80429  0.44820  0.08613  1
 O  O2  1  0.63793  0.30429  0.58613  1
 O  O3  1  0.94820  0.78184  0.58613  1
 O  O4  1  0.28184  0.13793  0.08613  1
 O  O5  1  0.71816  0.86207  0.91387  1
 O  O6  1  0.05180  0.21816  0.41387  1
 O  O7  1  0.36207  0.69571  0.41387  1
 O  O8  1  0.19571  0.55180  0.91387  1
