CIF file written using JARVIS-Tools package.
data_As3H5O10
_symmetry_space_group_name_H-M  'P-1'
_cell_length_a       4.7524
_cell_length_b       5.72194
_cell_length_c       7.23266
_cell_angle_alpha    100.722
_cell_angle_beta     97.1001
_cell_angle_gamma    102.136

_symmetry_Int_Tables_number  2
_chemical_formula_structural  As3H5O10
_chemical_formula_sum  As3H5O0
_cell_volume  186.19469681966402
_cell_formula_units_Z  1
loop_
  _symmetry_equiv_pos_site_id
 _symmetry_equiv_pos_as_xyz
 1  'x, y, z'
loop_
 _atom_site_type_symbol
 _atom_site_label
 _atom_site_symmetry_multiplicity
 _atom_site_fract_x
 _atom_site_fract_y
 _atom_site_fract_z
 _atom_site_fract_occupancy
 As  As1  1  0.50000  0.50000  0.50000  1
 As  As2  1  0.89233  0.23888  0.22774  1
 As  As3  1  0.10767  0.76112  0.77226  1
 H  H1  1  0.77629  0.82895  0.09997  1
 H  H2  1  0.22371  0.17105  0.90003  1
 H  H3  1  -0.00000  0.50000  0.00000  1
 H  H4  1  0.44618  0.79827  0.32488  1
 H  H5  1  0.55382  0.20173  0.67512  1
 O  O1  1  0.33409  0.56662  0.72466  1
 O  O2  1  0.67279  0.94096  0.17799  1
 O  O3  1  0.32721  0.05904  0.82201  1
 O  O4  1  0.00897  0.29685  0.02246  1
 O  O5  1  0.31627  0.69823  0.39425  1
 O  O6  1  0.17603  0.23014  0.39914  1
 O  O7  1  0.68373  0.30177  0.60575  1
 O  O8  1  0.66591  0.43338  0.27534  1
 O  O9  1  0.82397  0.76986  0.60086  1
 O  O10  1  0.99103  0.70315  0.97754  1
