CIF file written using JARVIS-Tools package.
data_SbRh
_symmetry_space_group_name_H-M  'Pnma'
_cell_length_a       3.92057
_cell_length_b       6.06222
_cell_length_c       6.44492
_cell_angle_alpha    90
_cell_angle_beta     90
_cell_angle_gamma    90

_symmetry_Int_Tables_number  62
_chemical_formula_structural  SbRh
_chemical_formula_sum  Sb4Rh4
_cell_volume  153.17847917087406
_cell_formula_units_Z  4
loop_
  _symmetry_equiv_pos_site_id
 _symmetry_equiv_pos_as_xyz
 1  'x, y, z'
loop_
 _atom_site_type_symbol
 _atom_site_label
 _atom_site_symmetry_multiplicity
 _atom_site_fract_x
 _atom_site_fract_y
 _atom_site_fract_z
 _atom_site_fract_occupancy
 Rh  Rh1  1  0.75000  0.99425  0.19599  1
 Rh  Rh2  1  0.25000  0.00575  0.80401  1
 Rh  Rh3  1  0.75000  0.49425  0.30401  1
 Rh  Rh4  1  0.25000  0.50575  0.69599  1
 Sb  Sb1  1  0.75000  0.80082  0.59138  1
 Sb  Sb2  1  0.25000  0.19918  0.40862  1
 Sb  Sb3  1  0.75000  0.30082  0.90862  1
 Sb  Sb4  1  0.25000  0.69918  0.09138  1
