CIF file written using JARVIS-Tools package.
data_TiFeO3
_symmetry_space_group_name_H-M  'R-3'
_cell_length_a       5.51489
_cell_length_b       5.51489
_cell_length_c       5.51489
_cell_angle_alpha    54.7927
_cell_angle_beta     54.7927
_cell_angle_gamma    54.7927

_symmetry_Int_Tables_number  148
_chemical_formula_structural  TiFeO3
_chemical_formula_sum  Ti2Fe2O6
_cell_volume  104.22105748078616
_cell_formula_units_Z  2
loop_
  _symmetry_equiv_pos_site_id
 _symmetry_equiv_pos_as_xyz
 1  'x, y, z'
loop_
 _atom_site_type_symbol
 _atom_site_label
 _atom_site_symmetry_multiplicity
 _atom_site_fract_x
 _atom_site_fract_y
 _atom_site_fract_z
 _atom_site_fract_occupancy
 Fe  Fe1  1  0.85200  0.85200  0.85200  1
 Fe  Fe2  1  0.14800  0.14800  0.14800  1
 O  O1  1  0.06295  0.73269  0.44447  1
 O  O2  1  0.73269  0.44447  0.06295  1
 O  O3  1  0.44447  0.06295  0.73269  1
 O  O4  1  0.93705  0.26731  0.55553  1
 O  O5  1  0.55553  0.93705  0.26731  1
 O  O6  1  0.26731  0.55553  0.93705  1
 Ti  Ti1  1  0.64750  0.64750  0.64750  1
 Ti  Ti2  1  0.35250  0.35250  0.35250  1
