CIF file written using JARVIS-Tools package.
data_Na3VS3O
_symmetry_space_group_name_H-M  'Cmc2_1'
_cell_length_a       5.89246
_cell_length_b       7.64545
_cell_length_c       7.64544
_cell_angle_alpha    101.811
_cell_angle_beta     90
_cell_angle_gamma    90

_symmetry_Int_Tables_number  36
_chemical_formula_structural  Na3VS3O
_chemical_formula_sum  Na6V2S6O2
_cell_volume  337.13887630551193
_cell_formula_units_Z  2
loop_
  _symmetry_equiv_pos_site_id
 _symmetry_equiv_pos_as_xyz
 1  'x, y, z'
loop_
 _atom_site_type_symbol
 _atom_site_label
 _atom_site_symmetry_multiplicity
 _atom_site_fract_x
 _atom_site_fract_y
 _atom_site_fract_z
 _atom_site_fract_occupancy
 Na  Na1  1  0.46378  0.11889  0.88111  1
 Na  Na2  1  0.48309  0.17375  0.41361  1
 Na  Na3  1  0.48309  0.58639  0.82625  1
 Na  Na4  1  0.98309  0.41361  0.17375  1
 Na  Na5  1  0.96378  0.88111  0.11889  1
 Na  Na6  1  0.98309  0.82625  0.58639  1
 O  O1  1  0.59897  0.30197  0.69803  1
 O  O2  1  0.09897  0.69803  0.30197  1
 S  S1  1  0.50075  0.43267  0.18638  1
 S  S2  1  0.98289  0.11838  0.88162  1
 S  S3  1  0.50075  0.81362  0.56733  1
 S  S4  1  0.00075  0.18638  0.43267  1
 S  S5  1  0.00075  0.56733  0.81362  1
 S  S6  1  0.48289  0.88162  0.11838  1
 V  V1  1  0.38524  0.70295  0.29705  1
 V  V2  1  0.88524  0.29705  0.70295  1
