CIF file written using JARVIS-Tools package.
data_H4BrN
_symmetry_space_group_name_H-M  'P4/nmm'
_cell_length_a       5.70386
_cell_length_b       5.70386
_cell_length_c       4.06373
_cell_angle_alpha    90
_cell_angle_beta     90
_cell_angle_gamma    90

_symmetry_Int_Tables_number  129
_chemical_formula_structural  H4BrN
_chemical_formula_sum  H8Br2N2
_cell_volume  132.20966416525783
_cell_formula_units_Z  2
loop_
  _symmetry_equiv_pos_site_id
 _symmetry_equiv_pos_as_xyz
 1  'x, y, z'
loop_
 _atom_site_type_symbol
 _atom_site_label
 _atom_site_symmetry_multiplicity
 _atom_site_fract_x
 _atom_site_fract_y
 _atom_site_fract_z
 _atom_site_fract_occupancy
 Br  Br1  1  0.50000  0.00000  0.53438  1
 Br  Br2  1  0.00000  0.50000  0.46562  1
 H  H1  1  0.85011  0.00000  0.85191  1
 H  H2  1  0.14989  0.00000  0.85191  1
 H  H3  1  0.50000  0.35011  0.85191  1
 H  H4  1  0.50000  0.64989  0.85191  1
 H  H5  1  0.00000  0.14989  0.14809  1
 H  H6  1  0.64989  0.50000  0.14809  1
 H  H7  1  0.35011  0.50000  0.14809  1
 H  H8  1  0.00000  0.85011  0.14809  1
 N  N1  1  0.00000  0.00000  0.00000  1
 N  N2  1  0.50000  0.50000  0.00000  1
