CIF file written using JARVIS-Tools package.
data_Ca2MnP2H4O10
_symmetry_space_group_name_H-M  'P-1'
_cell_length_a       5.53927
_cell_length_b       5.78481
_cell_length_c       6.58404
_cell_angle_alpha    90.0724
_cell_angle_beta     102.765
_cell_angle_gamma    108.839

_symmetry_Int_Tables_number  2
_chemical_formula_structural  Ca2MnP2H4O10
_chemical_formula_sum  Ca2MnP2H4O0
_cell_volume  194.13562370304433
_cell_formula_units_Z  1
loop_
  _symmetry_equiv_pos_site_id
 _symmetry_equiv_pos_as_xyz
 1  'x, y, z'
loop_
 _atom_site_type_symbol
 _atom_site_label
 _atom_site_symmetry_multiplicity
 _atom_site_fract_x
 _atom_site_fract_y
 _atom_site_fract_z
 _atom_site_fract_occupancy
 Ca  Ca1  1  0.33155  0.60075  0.23317  1
 Ca  Ca2  1  0.66845  0.39925  0.76683  1
 H  H1  1  0.80895  0.06592  0.56296  1
 H  H2  1  0.19105  0.93408  0.43704  1
 H  H3  1  0.08439  0.28050  0.65806  1
 H  H4  1  0.91561  0.71950  0.34194  1
 Mn  Mn1  1  0.00000  0.00000  0.00000  1
 O  O1  1  0.30248  0.54070  0.59948  1
 O  O2  1  0.39590  0.24540  0.06848  1
 O  O3  1  0.60410  0.75460  0.93152  1
 O  O4  1  0.93292  0.15452  0.69877  1
 O  O5  1  0.12101  0.69206  0.88102  1
 O  O6  1  0.69752  0.45930  0.40052  1
 O  O7  1  0.38394  0.99824  0.66968  1
 O  O8  1  0.87899  0.30794  0.11898  1
 O  O9  1  0.61606  0.00176  0.33032  1
 O  O10  1  0.06708  0.84548  0.30123  1
 P  P1  1  0.64872  0.24683  0.23344  1
 P  P2  1  0.35128  0.75317  0.76656  1
