CIF file written using JARVIS-Tools package.
data_V2CuO6
_symmetry_space_group_name_H-M  'P-1'
_cell_length_a       3.57573
_cell_length_b       4.89922
_cell_length_c       6.49691
_cell_angle_alpha    110.977
_cell_angle_beta     86.7611
_cell_angle_gamma    109.234

_symmetry_Int_Tables_number  2
_chemical_formula_structural  V2CuO6
_chemical_formula_sum  V2CuO6
_cell_volume  100.09576620343637
_cell_formula_units_Z  1
loop_
  _symmetry_equiv_pos_site_id
 _symmetry_equiv_pos_as_xyz
 1  'x, y, z'
loop_
 _atom_site_type_symbol
 _atom_site_label
 _atom_site_symmetry_multiplicity
 _atom_site_fract_x
 _atom_site_fract_y
 _atom_site_fract_z
 _atom_site_fract_occupancy
 Cu  Cu1  1  0.00000  0.00000  0.00000  1
 O  O1  1  0.97933  0.94817  0.28016  1
 O  O2  1  0.02067  0.05183  0.71984  1
 O  O3  1  0.72430  0.31499  0.10908  1
 O  O4  1  0.27570  0.68501  0.89092  1
 O  O5  1  0.68642  0.38588  0.56835  1
 O  O6  1  0.31358  0.61412  0.43165  1
 V  V1  1  0.82857  0.62140  0.34912  1
 V  V2  1  0.17143  0.37860  0.65088  1
