CIF file written using JARVIS-Tools package.
data_NaV2O4
_symmetry_space_group_name_H-M  'Fd-3m'
_cell_length_a       6.0798
_cell_length_b       6.0798
_cell_length_c       6.0798
_cell_angle_alpha    120.082
_cell_angle_beta     120.082
_cell_angle_gamma    89.8576

_symmetry_Int_Tables_number  227
_chemical_formula_structural  NaV2O4
_chemical_formula_sum  Na2V4O8
_cell_volume  158.71304427955863
_cell_formula_units_Z  2
loop_
  _symmetry_equiv_pos_site_id
 _symmetry_equiv_pos_as_xyz
 1  'x, y, z'
loop_
 _atom_site_type_symbol
 _atom_site_label
 _atom_site_symmetry_multiplicity
 _atom_site_fract_x
 _atom_site_fract_y
 _atom_site_fract_z
 _atom_site_fract_occupancy
 Na  Na1  1  0.87500  0.12500  0.75000  1
 Na  Na2  1  0.12500  0.87500  0.25000  1
 O  O1  1  0.73060  0.26868  0.03808  1
 O  O2  1  0.30748  0.26940  0.03808  1
 O  O3  1  0.73132  0.26940  0.46192  1
 O  O4  1  0.73060  0.69252  0.46192  1
 O  O5  1  0.26940  0.30748  0.53808  1
 O  O6  1  0.26868  0.73060  0.53808  1
 O  O7  1  0.69252  0.73060  0.96192  1
 O  O8  1  0.26940  0.73132  0.96192  1
 V  V1  1  0.50000  0.00000  -0.00000  1
 V  V2  1  0.50000  0.50000  0.00000  1
 V  V3  1  0.50000  0.50000  0.50000  1
 V  V4  1  0.00000  0.50000  0.50000  1
