CIF file written using JARVIS-Tools package.
data_Li2S
_symmetry_space_group_name_H-M  'P6_3/mmc'
_cell_length_a       3.89585
_cell_length_b       6.74768
_cell_length_c       7.04422
_cell_angle_alpha    90
_cell_angle_beta     90
_cell_angle_gamma    90

_symmetry_Int_Tables_number  194
_chemical_formula_structural  Li2S
_chemical_formula_sum  Li8S4
_cell_volume  185.17820709058282
_cell_formula_units_Z  4
loop_
  _symmetry_equiv_pos_site_id
 _symmetry_equiv_pos_as_xyz
 1  'x, y, z'
loop_
 _atom_site_type_symbol
 _atom_site_label
 _atom_site_symmetry_multiplicity
 _atom_site_fract_x
 _atom_site_fract_y
 _atom_site_fract_z
 _atom_site_fract_occupancy
 Li  Li1  1  0.72398  0.41668  0.59218  1
 Li  Li2  1  0.22398  0.91668  0.90782  1
 Li  Li3  1  0.22398  0.58332  0.40782  1
 Li  Li4  1  0.22470  0.91669  0.59221  1
 Li  Li5  1  0.22470  0.58331  0.09221  1
 Li  Li6  1  0.72470  0.41669  0.90779  1
 Li  Li7  1  0.72398  0.08332  0.09218  1
 Li  Li8  1  0.72470  0.08331  0.40779  1
 S  S1  1  0.22432  0.58332  0.75001  1
 S  S2  1  0.72432  0.41668  0.24999  1
 S  S3  1  0.72432  0.08332  0.74999  1
 S  S4  1  0.22432  0.91668  0.25001  1
