CIF file written using JARVIS-Tools package.
data_Mo6PbS8
_symmetry_space_group_name_H-M  'R-3'
_cell_length_a       6.60045
_cell_length_b       6.60044
_cell_length_c       6.60044
_cell_angle_alpha    89.1778
_cell_angle_beta     89.1778
_cell_angle_gamma    89.1777

_symmetry_Int_Tables_number  148
_chemical_formula_structural  Mo6PbS8
_chemical_formula_sum  Mo6PbS8
_cell_volume  287.46658550802886
_cell_formula_units_Z  1
loop_
  _symmetry_equiv_pos_site_id
 _symmetry_equiv_pos_as_xyz
 1  'x, y, z'
loop_
 _atom_site_type_symbol
 _atom_site_label
 _atom_site_symmetry_multiplicity
 _atom_site_fract_x
 _atom_site_fract_y
 _atom_site_fract_z
 _atom_site_fract_occupancy
 Mo  Mo1  1  0.56270  0.22942  0.41682  1
 Mo  Mo2  1  0.77058  0.58318  0.43730  1
 Mo  Mo3  1  0.41682  0.56270  0.22942  1
 Mo  Mo4  1  0.43730  0.77058  0.58318  1
 Mo  Mo5  1  0.58318  0.43730  0.77058  1
 Mo  Mo6  1  0.22942  0.41682  0.56270  1
 Pb  Pb1  1  0.00000  0.00000  0.00000  1
 S  S1  1  0.61698  0.87542  0.25838  1
 S  S2  1  0.24453  0.24453  0.24453  1
 S  S3  1  0.74162  0.38302  0.12458  1
 S  S4  1  0.38302  0.12458  0.74162  1
 S  S5  1  0.12458  0.74162  0.38302  1
 S  S6  1  0.25838  0.61698  0.87542  1
 S  S7  1  0.75547  0.75547  0.75547  1
 S  S8  1  0.87542  0.25838  0.61698  1
