CIF file written using JARVIS-Tools package.
data_MgInBr3
_symmetry_space_group_name_H-M  'Pnma'
_cell_length_a       3.96977
_cell_length_b       9.42938
_cell_length_c       15.3076
_cell_angle_alpha    90
_cell_angle_beta     90
_cell_angle_gamma    90

_symmetry_Int_Tables_number  62
_chemical_formula_structural  MgInBr3
_chemical_formula_sum  Mg4In4Br2
_cell_volume  573.0007429410438
_cell_formula_units_Z  4
loop_
  _symmetry_equiv_pos_site_id
 _symmetry_equiv_pos_as_xyz
 1  'x, y, z'
loop_
 _atom_site_type_symbol
 _atom_site_label
 _atom_site_symmetry_multiplicity
 _atom_site_fract_x
 _atom_site_fract_y
 _atom_site_fract_z
 _atom_site_fract_occupancy
 Br  Br1  1  0.75000  0.47623  0.10137  1
 Br  Br2  1  0.75000  0.97623  0.39863  1
 Br  Br3  1  0.25000  0.02377  0.60137  1
 Br  Br4  1  0.25000  0.77575  0.21062  1
 Br  Br5  1  0.75000  0.22425  0.78938  1
 Br  Br6  1  0.25000  0.27575  0.28938  1
 Br  Br7  1  0.75000  0.72425  0.71062  1
 Br  Br8  1  0.25000  0.17276  0.00279  1
 Br  Br9  1  0.75000  0.82724  0.99721  1
 Br  Br10  1  0.25000  0.67276  0.49721  1
 Br  Br11  1  0.75000  0.32724  0.50279  1
 Br  Br12  1  0.25000  0.52377  0.89863  1
 In  In1  1  0.75000  0.54622  0.32372  1
 In  In2  1  0.25000  0.45378  0.67628  1
 In  In3  1  0.25000  0.95378  0.82372  1
 In  In4  1  0.75000  0.04622  0.17628  1
 Mg  Mg1  1  0.75000  0.83794  0.55542  1
 Mg  Mg2  1  0.25000  0.16206  0.44458  1
 Mg  Mg3  1  0.75000  0.33794  0.94458  1
 Mg  Mg4  1  0.25000  0.66206  0.05542  1
