CIF file written using JARVIS-Tools package.
data_TeMoWS3
_symmetry_space_group_name_H-M  'P3m1'
_cell_length_a       3.28034
_cell_length_b       3.28041
_cell_length_c       39.4059
_cell_angle_alpha    89.9943
_cell_angle_beta     90
_cell_angle_gamma    119.999

_symmetry_Int_Tables_number  156
_chemical_formula_structural  TeMoWS3
_chemical_formula_sum  Te2Mo2W2S6
_cell_volume  367.2337361093208
_cell_formula_units_Z  2
loop_
  _symmetry_equiv_pos_site_id
 _symmetry_equiv_pos_as_xyz
 1  'x, y, z'
loop_
 _atom_site_type_symbol
 _atom_site_label
 _atom_site_symmetry_multiplicity
 _atom_site_fract_x
 _atom_site_fract_y
 _atom_site_fract_z
 _atom_site_fract_occupancy
 Mo  Mo1  1  0.33321  0.66642  0.09352  1
 Mo  Mo2  1  0.66676  0.33352  0.28050  1
 S  S1  1  0.33335  0.66671  0.31951  1
 S  S2  1  0.33334  0.66668  0.69888  1
 S  S3  1  0.66655  0.33309  0.05456  1
 S  S4  1  0.66653  0.33306  0.13251  1
 S  S5  1  0.33350  0.66701  0.24147  1
 S  S6  1  0.33348  0.66696  0.62058  1
 Te  Te1  1  0.66675  0.33350  0.41984  1
 Te  Te2  1  0.66648  0.33297  0.51844  1
 W  W1  1  0.33328  0.66655  0.46912  1
 W  W2  1  0.66677  0.33354  0.65983  1
