CIF file written using JARVIS-Tools package.
data_Tb2SnS5
_symmetry_space_group_name_H-M  'Pbam'
_cell_length_a       3.82285
_cell_length_b       7.73522
_cell_length_c       11.4048
_cell_angle_alpha    90
_cell_angle_beta     90
_cell_angle_gamma    90

_symmetry_Int_Tables_number  55
_chemical_formula_structural  Tb2SnS5
_chemical_formula_sum  Tb4Sn2S0
_cell_volume  337.2479005672844
_cell_formula_units_Z  2
loop_
  _symmetry_equiv_pos_site_id
 _symmetry_equiv_pos_as_xyz
 1  'x, y, z'
loop_
 _atom_site_type_symbol
 _atom_site_label
 _atom_site_symmetry_multiplicity
 _atom_site_fract_x
 _atom_site_fract_y
 _atom_site_fract_z
 _atom_site_fract_occupancy
 S  S1  1  0.50000  0.67051  0.59814  1
 S  S2  1  0.00000  0.17831  0.19551  1
 S  S3  1  0.50000  0.17051  0.90186  1
 S  S4  1  0.00000  0.00000  0.50000  1
 S  S5  1  0.50000  0.82949  0.09814  1
 S  S6  1  0.00000  0.67831  0.30449  1
 S  S7  1  0.00000  0.32169  0.69551  1
 S  S8  1  0.00000  0.82169  0.80449  1
 S  S9  1  0.50000  0.32949  0.40186  1
 S  S10  1  0.00000  0.50000  0.00000  1
 Sn  Sn1  1  0.00000  0.50000  0.50000  1
 Sn  Sn2  1  0.00000  0.00000  0.00000  1
 Tb  Tb1  1  0.50000  0.97159  0.32724  1
 Tb  Tb2  1  0.50000  0.47159  0.17276  1
 Tb  Tb3  1  0.50000  0.52841  0.82724  1
 Tb  Tb4  1  0.50000  0.02841  0.67276  1
