CIF file written using JARVIS-Tools package.
data_InSb
_symmetry_space_group_name_H-M  'Fm-3m'
_cell_length_a       4.34871
_cell_length_b       4.34871
_cell_length_c       6.15216
_cell_angle_alpha    90
_cell_angle_beta     90
_cell_angle_gamma    89.9964

_symmetry_Int_Tables_number  225
_chemical_formula_structural  InSb
_chemical_formula_sum  In2Sb2
_cell_volume  116.34484425846712
_cell_formula_units_Z  2
loop_
  _symmetry_equiv_pos_site_id
 _symmetry_equiv_pos_as_xyz
 1  'x, y, z'
loop_
 _atom_site_type_symbol
 _atom_site_label
 _atom_site_symmetry_multiplicity
 _atom_site_fract_x
 _atom_site_fract_y
 _atom_site_fract_z
 _atom_site_fract_occupancy
 In  In1  1  0.75000  0.75000  0.25000  1
 In  In2  1  0.25000  0.25000  0.75000  1
 Sb  Sb1  1  0.25000  0.25000  0.25000  1
 Sb  Sb2  1  0.75000  0.75000  0.75000  1
