CIF file written using JARVIS-Tools package.
data_PW
_symmetry_space_group_name_H-M  'Pnma'
_cell_length_a       3.29636
_cell_length_b       5.82554
_cell_length_c       6.22992
_cell_angle_alpha    90
_cell_angle_beta     90
_cell_angle_gamma    90

_symmetry_Int_Tables_number  62
_chemical_formula_structural  PW
_chemical_formula_sum  P4W4
_cell_volume  119.63378277077004
_cell_formula_units_Z  4
loop_
  _symmetry_equiv_pos_site_id
 _symmetry_equiv_pos_as_xyz
 1  'x, y, z'
loop_
 _atom_site_type_symbol
 _atom_site_label
 _atom_site_symmetry_multiplicity
 _atom_site_fract_x
 _atom_site_fract_y
 _atom_site_fract_z
 _atom_site_fract_occupancy
 P  P1  1  0.75000  0.81176  0.56810  1
 P  P2  1  0.25000  0.18824  0.43190  1
 P  P3  1  0.75000  0.31176  0.93190  1
 P  P4  1  0.25000  0.68824  0.06810  1
 W  W1  1  0.75000  0.48548  0.31213  1
 W  W2  1  0.75000  0.98548  0.18787  1
 W  W3  1  0.25000  0.01452  0.81213  1
 W  W4  1  0.25000  0.51452  0.68787  1
