CIF file written using JARVIS-Tools package.
data_Na2Ca2Ta3O10
_symmetry_space_group_name_H-M  'I4/mmm'
_cell_length_a       3.97717
_cell_length_b       3.97718
_cell_length_c       14.5591
_cell_angle_alpha    97.8504
_cell_angle_beta     97.8504
_cell_angle_gamma    90.0001

_symmetry_Int_Tables_number  139
_chemical_formula_structural  Na2Ca2Ta3O10
_chemical_formula_sum  Na2Ca2Ta3O0
_cell_volume  225.95787332613278
_cell_formula_units_Z  1
loop_
  _symmetry_equiv_pos_site_id
 _symmetry_equiv_pos_as_xyz
 1  'x, y, z'
loop_
 _atom_site_type_symbol
 _atom_site_label
 _atom_site_symmetry_multiplicity
 _atom_site_fract_x
 _atom_site_fract_y
 _atom_site_fract_z
 _atom_site_fract_occupancy
 Ca  Ca1  1  0.57653  0.57653  0.15306  1
 Ca  Ca2  1  0.42347  0.42347  0.84694  1
 Na  Na1  1  0.71167  0.71167  0.42333  1
 Na  Na2  1  0.28833  0.28833  0.57667  1
 O  O1  1  0.20938  0.20938  0.41876  1
 O  O2  1  0.86628  0.36628  0.73257  1
 O  O3  1  0.36628  0.86628  0.73257  1
 O  O4  1  0.13372  0.63372  0.26743  1
 O  O5  1  0.63372  0.13372  0.26743  1
 O  O6  1  0.79062  0.79062  0.58124  1
 O  O7  1  0.50000  -0.00000  0.00000  1
 O  O8  1  0.06908  0.06908  0.13815  1
 O  O9  1  0.93092  0.93092  0.86185  1
 O  O10  1  0.00000  0.50000  0.00000  1
 Ta  Ta1  1  0.14415  0.14415  0.28830  1
 Ta  Ta2  1  0.00000  0.00000  0.00000  1
 Ta  Ta3  1  0.85585  0.85585  0.71170  1
