CIF file written using JARVIS-Tools package.
data_Li2FeP2HO8
_symmetry_space_group_name_H-M  'P2_1'
_cell_length_a       4.78294
_cell_length_b       7.84548
_cell_length_c       7.35433
_cell_angle_alpha    90
_cell_angle_beta     103.9
_cell_angle_gamma    90

_symmetry_Int_Tables_number  4
_chemical_formula_structural  Li2FeP2HO8
_chemical_formula_sum  Li4Fe2P4H2O6
_cell_volume  267.8862412278769
_cell_formula_units_Z  2
loop_
  _symmetry_equiv_pos_site_id
 _symmetry_equiv_pos_as_xyz
 1  'x, y, z'
loop_
 _atom_site_type_symbol
 _atom_site_label
 _atom_site_symmetry_multiplicity
 _atom_site_fract_x
 _atom_site_fract_y
 _atom_site_fract_z
 _atom_site_fract_occupancy
 Fe  Fe1  1  0.25060  -0.00063  0.74714  1
 Fe  Fe2  1  0.74940  0.49937  0.25286  1
 H  H1  1  0.22598  0.99126  0.23889  1
 H  H2  1  0.77402  0.49126  0.76111  1
 Li  Li1  1  0.37151  0.63239  0.90963  1
 Li  Li2  1  0.62849  0.13239  0.09037  1
 Li  Li3  1  0.86208  0.86627  0.40861  1
 Li  Li4  1  0.13792  0.36627  0.59139  1
 O  O1  1  0.26699  0.83074  0.55366  1
 O  O2  1  0.77079  0.66950  0.05782  1
 O  O3  1  0.62983  0.95629  0.90389  1
 O  O4  1  0.39530  0.17663  0.60842  1
 O  O5  1  0.60470  0.67663  0.39158  1
 O  O6  1  0.22921  0.16950  0.94218  1
 O  O7  1  0.37017  0.45629  0.09611  1
 O  O8  1  0.50485  0.55927  0.69702  1
 O  O9  1  0.00924  0.93955  0.19486  1
 O  O10  1  0.10824  0.82057  0.89030  1
 O  O11  1  0.87230  0.04183  0.59625  1
 O  O12  1  -0.00924  0.43955  0.80514  1
 O  O13  1  0.49515  0.05927  0.30298  1
 O  O14  1  0.89176  0.32057  0.10970  1
 O  O15  1  0.73301  0.33074  0.44634  1
 O  O16  1  0.12770  0.54183  0.40375  1
 P  P1  1  0.62044  0.15379  0.48816  1
 P  P2  1  0.37956  0.65379  0.51184  1
 P  P3  1  0.11965  0.34265  0.99384  1
 P  P4  1  0.88035  0.84265  0.00616  1
