CIF file written using JARVIS-Tools package.
data_Th2In
_symmetry_space_group_name_H-M  'I4/mcm'
_cell_length_a       6.11476
_cell_length_b       6.30108
_cell_length_c       6.30107
_cell_angle_alpha    76.3829
_cell_angle_beta     60.9734
_cell_angle_gamma    60.9734

_symmetry_Int_Tables_number  140
_chemical_formula_structural  Th2In
_chemical_formula_sum  Th4In2
_cell_volume  185.6196037229055
_cell_formula_units_Z  2
loop_
  _symmetry_equiv_pos_site_id
 _symmetry_equiv_pos_as_xyz
 1  'x, y, z'
loop_
 _atom_site_type_symbol
 _atom_site_label
 _atom_site_symmetry_multiplicity
 _atom_site_fract_x
 _atom_site_fract_y
 _atom_site_fract_z
 _atom_site_fract_occupancy
 In  In1  1  0.25000  0.00000  -0.00000  1
 In  In2  1  0.75000  0.00000  -0.00000  1
 Th  Th1  1  0.15297  0.50000  0.19406  1
 Th  Th2  1  0.34703  0.80594  0.50000  1
 Th  Th3  1  0.65297  0.19406  0.50000  1
 Th  Th4  1  0.84703  0.50000  0.80594  1
