CIF file written using JARVIS-Tools package.
data_KSmPdO3
_symmetry_space_group_name_H-M  'C2/m'
_cell_length_a       3.93307
_cell_length_b       6.88711
_cell_length_c       7.36158
_cell_angle_alpha    103.943
_cell_angle_beta     90
_cell_angle_gamma    106.591

_symmetry_Int_Tables_number  12
_chemical_formula_structural  KSmPdO3
_chemical_formula_sum  K2Sm2Pd2O6
_cell_volume  184.96584750442378
_cell_formula_units_Z  2
loop_
  _symmetry_equiv_pos_site_id
 _symmetry_equiv_pos_as_xyz
 1  'x, y, z'
loop_
 _atom_site_type_symbol
 _atom_site_label
 _atom_site_symmetry_multiplicity
 _atom_site_fract_x
 _atom_site_fract_y
 _atom_site_fract_z
 _atom_site_fract_occupancy
 K  K1  1  0.35563  0.71125  0.43608  1
 K  K2  1  0.64437  0.28875  0.56392  1
 O  O1  1  0.83010  0.66019  0.13361  1
 O  O2  1  0.84703  0.69406  0.72211  1
 O  O3  1  0.16990  0.33981  0.86639  1
 O  O4  1  0.49372  0.98743  0.19029  1
 O  O5  1  0.50628  0.01257  0.80971  1
 O  O6  1  0.15297  0.30594  0.27789  1
 Pd  Pd1  1  0.00689  0.01378  0.77096  1
 Pd  Pd2  1  0.99311  0.98622  0.22904  1
 Sm  Sm1  1  0.35033  0.70067  0.92233  1
 Sm  Sm2  1  0.64967  0.29933  0.07767  1
