CIF file written using JARVIS-Tools package.
data_LuB2Ru
_symmetry_space_group_name_H-M  'Pnma'
_cell_length_a       5.2453
_cell_length_b       5.81895
_cell_length_c       6.29792
_cell_angle_alpha    90
_cell_angle_beta     90
_cell_angle_gamma    90

_symmetry_Int_Tables_number  62
_chemical_formula_structural  LuB2Ru
_chemical_formula_sum  Lu4B8Ru4
_cell_volume  192.22602174566563
_cell_formula_units_Z  4
loop_
  _symmetry_equiv_pos_site_id
 _symmetry_equiv_pos_as_xyz
 1  'x, y, z'
loop_
 _atom_site_type_symbol
 _atom_site_label
 _atom_site_symmetry_multiplicity
 _atom_site_fract_x
 _atom_site_fract_y
 _atom_site_fract_z
 _atom_site_fract_occupancy
 B  B1  1  0.91566  0.13333  0.53464  1
 B  B2  1  0.41566  0.86667  0.46536  1
 B  B3  1  0.58434  0.63333  0.96536  1
 B  B4  1  0.08434  0.36667  0.03464  1
 B  B5  1  0.08434  0.86667  0.46536  1
 B  B6  1  0.91566  0.63333  0.96536  1
 B  B7  1  0.41566  0.36667  0.03464  1
 B  B8  1  0.58434  0.13333  0.53464  1
 Lu  Lu1  1  0.25000  0.51092  0.66465  1
 Lu  Lu2  1  0.75000  0.48908  0.33535  1
 Lu  Lu3  1  0.25000  0.01092  0.83535  1
 Lu  Lu4  1  0.75000  0.98908  0.16465  1
 Ru  Ru1  1  0.75000  0.81588  0.68255  1
 Ru  Ru2  1  0.75000  0.31588  0.81745  1
 Ru  Ru3  1  0.25000  0.18412  0.31745  1
 Ru  Ru4  1  0.25000  0.68412  0.18255  1
