CIF file written using JARVIS-Tools package.
data_DyFe2Ge2
_symmetry_space_group_name_H-M  'I4/mmm'
_cell_length_a       4.01345
_cell_length_b       4.01345
_cell_length_c       5.71791
_cell_angle_alpha    110.546
_cell_angle_beta     110.546
_cell_angle_gamma    90

_symmetry_Int_Tables_number  139
_chemical_formula_structural  DyFe2Ge2
_chemical_formula_sum  DyFe2Ge2
_cell_volume  79.95803374998368
_cell_formula_units_Z  1
loop_
  _symmetry_equiv_pos_site_id
 _symmetry_equiv_pos_as_xyz
 1  'x, y, z'
loop_
 _atom_site_type_symbol
 _atom_site_label
 _atom_site_symmetry_multiplicity
 _atom_site_fract_x
 _atom_site_fract_y
 _atom_site_fract_z
 _atom_site_fract_occupancy
 Dy  Dy1  1  0.00000  0.00000  0.00000  1
 Fe  Fe1  1  0.25000  0.75000  0.50000  1
 Fe  Fe2  1  0.75000  0.25000  0.50000  1
 Ge  Ge1  1  0.63127  0.63127  0.26254  1
 Ge  Ge2  1  0.36873  0.36873  0.73746  1
