CIF file written using JARVIS-Tools package.
data_AsS2NF6
_symmetry_space_group_name_H-M  'C2/m'
_cell_length_a       5.21497
_cell_length_b       5.67164
_cell_length_c       5.67165
_cell_angle_alpha    67.5499
_cell_angle_beta     89.5144
_cell_angle_gamma    89.5144

_symmetry_Int_Tables_number  12
_chemical_formula_structural  AsS2NF6
_chemical_formula_sum  AsS2NF6
_cell_volume  155.0312531144182
_cell_formula_units_Z  1
loop_
  _symmetry_equiv_pos_site_id
 _symmetry_equiv_pos_as_xyz
 1  'x, y, z'
loop_
 _atom_site_type_symbol
 _atom_site_label
 _atom_site_symmetry_multiplicity
 _atom_site_fract_x
 _atom_site_fract_y
 _atom_site_fract_z
 _atom_site_fract_occupancy
 As  As1  1  0.00000  0.00000  0.00000  1
 F  F1  1  0.13332  0.08732  0.68879  1
 F  F2  1  0.86668  0.91268  0.31121  1
 F  F3  1  0.13332  0.68879  0.08732  1
 F  F4  1  0.28224  0.10308  0.10308  1
 F  F5  1  0.71776  0.89692  0.89692  1
 F  F6  1  0.86668  0.31121  0.91268  1
 N  N1  1  0.50000  0.50000  0.50000  1
 S  S1  1  0.37137  0.64179  0.64179  1
 S  S2  1  0.62863  0.35821  0.35821  1
