CIF file written using JARVIS-Tools package.
data_V2O3F
_symmetry_space_group_name_H-M  'Imma'
_cell_length_a       5.49672
_cell_length_b       5.49672
_cell_length_c       5.49672
_cell_angle_alpha    71.0859
_cell_angle_beta     103.614
_cell_angle_gamma    63.8656

_symmetry_Int_Tables_number  74
_chemical_formula_structural  V2O3F
_chemical_formula_sum  V4O6F2
_cell_volume  126.2944708273651
_cell_formula_units_Z  2
loop_
  _symmetry_equiv_pos_site_id
 _symmetry_equiv_pos_as_xyz
 1  'x, y, z'
loop_
 _atom_site_type_symbol
 _atom_site_label
 _atom_site_symmetry_multiplicity
 _atom_site_fract_x
 _atom_site_fract_y
 _atom_site_fract_z
 _atom_site_fract_occupancy
 F  F1  1  0.54396  0.25000  0.79396  1
 F  F2  1  0.45604  0.75000  0.20604  1
 O  O1  1  0.05673  0.75000  0.80673  1
 O  O2  1  0.00000  0.30177  0.69823  1
 O  O3  1  0.50000  0.80177  0.69823  1
 O  O4  1  0.50000  0.19823  0.30177  1
 O  O5  1  -0.00000  0.69823  0.30177  1
 O  O6  1  0.94327  0.25000  0.19327  1
 V  V1  1  0.78744  0.75000  0.53744  1
 V  V2  1  0.21256  0.25000  0.46256  1
 V  V3  1  0.00000  0.00000  0.00000  1
 V  V4  1  0.50000  0.50000  -0.00000  1
