CIF file written using JARVIS-Tools package.
data_TiAs2O7
_symmetry_space_group_name_H-M  'C2/c'
_cell_length_a       5.30756
_cell_length_b       5.30755
_cell_length_c       9.57645
_cell_angle_alpha    99.3473
_cell_angle_beta     99.3474
_cell_angle_gamma    98.0494

_symmetry_Int_Tables_number  15
_chemical_formula_structural  TiAs2O7
_chemical_formula_sum  Ti2As4O4
_cell_volume  258.78854706140845
_cell_formula_units_Z  2
loop_
  _symmetry_equiv_pos_site_id
 _symmetry_equiv_pos_as_xyz
 1  'x, y, z'
loop_
 _atom_site_type_symbol
 _atom_site_label
 _atom_site_symmetry_multiplicity
 _atom_site_fract_x
 _atom_site_fract_y
 _atom_site_fract_z
 _atom_site_fract_occupancy
 As  As1  1  0.56304  0.82581  0.19742  1
 As  As2  1  0.82581  0.56304  0.69742  1
 As  As3  1  0.17419  0.43696  0.30258  1
 As  As4  1  0.43696  0.17419  0.80258  1
 O  O1  1  0.74958  0.76166  0.07283  1
 O  O2  1  0.28433  0.92243  0.13043  1
 O  O3  1  0.25042  0.23834  0.92717  1
 O  O4  1  0.03547  0.71214  0.85280  1
 O  O5  1  0.07757  0.71567  0.36957  1
 O  O6  1  0.47690  0.52310  0.25000  1
 O  O7  1  0.28786  0.96453  0.64720  1
 O  O8  1  0.52310  0.47690  0.75000  1
 O  O9  1  0.76166  0.74958  0.57283  1
 O  O10  1  0.92243  0.28433  0.63043  1
 O  O11  1  0.96453  0.28786  0.14720  1
 O  O12  1  0.71567  0.07757  0.86957  1
 O  O13  1  0.71214  0.03547  0.35280  1
 O  O14  1  0.23834  0.25042  0.42717  1
 Ti  Ti1  1  -0.00000  -0.00000  0.50000  1
 Ti  Ti2  1  0.00000  0.00000  0.00000  1
