CIF file written using JARVIS-Tools package.
data_Dy2In
_symmetry_space_group_name_H-M  'P6_3/mmc'
_cell_length_a       5.35314
_cell_length_b       5.35314
_cell_length_c       6.66129
_cell_angle_alpha    90
_cell_angle_beta     90
_cell_angle_gamma    120

_symmetry_Int_Tables_number  194
_chemical_formula_structural  Dy2In
_chemical_formula_sum  Dy4In2
_cell_volume  165.31336402658545
_cell_formula_units_Z  2
loop_
  _symmetry_equiv_pos_site_id
 _symmetry_equiv_pos_as_xyz
 1  'x, y, z'
loop_
 _atom_site_type_symbol
 _atom_site_label
 _atom_site_symmetry_multiplicity
 _atom_site_fract_x
 _atom_site_fract_y
 _atom_site_fract_z
 _atom_site_fract_occupancy
 Dy  Dy1  1  0.33333  0.66667  0.25000  1
 Dy  Dy2  1  0.66667  0.33333  0.75000  1
 Dy  Dy3  1  0.00000  0.00000  0.50000  1
 Dy  Dy4  1  0.00000  0.00000  0.00000  1
 In  In1  1  0.66667  0.33333  0.25000  1
 In  In2  1  0.33333  0.66667  0.75000  1
