CIF file written using JARVIS-Tools package.
data_CaY2S4
_symmetry_space_group_name_H-M  'Pnma'
_cell_length_a       3.89192
_cell_length_b       12.9631
_cell_length_c       13.0994
_cell_angle_alpha    90
_cell_angle_beta     90
_cell_angle_gamma    90

_symmetry_Int_Tables_number  62
_chemical_formula_structural  CaY2S4
_chemical_formula_sum  Ca4Y8S6
_cell_volume  660.8845053039073
_cell_formula_units_Z  4
loop_
  _symmetry_equiv_pos_site_id
 _symmetry_equiv_pos_as_xyz
 1  'x, y, z'
loop_
 _atom_site_type_symbol
 _atom_site_label
 _atom_site_symmetry_multiplicity
 _atom_site_fract_x
 _atom_site_fract_y
 _atom_site_fract_z
 _atom_site_fract_occupancy
 Ca  Ca1  1  0.75000  0.63038  0.41787  1
 Ca  Ca2  1  0.25000  0.36962  0.58213  1
 Ca  Ca3  1  0.75000  0.13038  0.08213  1
 Ca  Ca4  1  0.25000  0.86962  0.91787  1
 S  S1  1  0.25000  0.97160  0.11730  1
 S  S2  1  0.75000  0.28242  0.73609  1
 S  S3  1  0.25000  0.47160  0.38270  1
 S  S4  1  0.75000  0.52840  0.61730  1
 S  S5  1  0.75000  0.74367  0.02489  1
 S  S6  1  0.25000  0.25633  0.97511  1
 S  S7  1  0.75000  0.02840  0.88270  1
 S  S8  1  0.25000  0.75633  0.52489  1
 S  S9  1  0.75000  0.46603  0.11751  1
 S  S10  1  0.25000  0.03397  0.61751  1
 S  S11  1  0.75000  0.96603  0.38249  1
 S  S12  1  0.25000  0.21758  0.23609  1
 S  S13  1  0.75000  0.24367  0.47511  1
 S  S14  1  0.25000  0.53397  0.88249  1
 S  S15  1  0.75000  0.78242  0.76391  1
 S  S16  1  0.25000  0.71758  0.26391  1
 Y  Y1  1  0.25000  0.60787  0.08379  1
 Y  Y2  1  0.75000  0.89213  0.58379  1
 Y  Y3  1  0.25000  0.10787  0.41621  1
 Y  Y4  1  0.75000  0.39213  0.91621  1
 Y  Y5  1  0.75000  0.35402  0.29700  1
 Y  Y6  1  0.25000  0.64598  0.70300  1
 Y  Y7  1  0.25000  0.14598  0.79700  1
 Y  Y8  1  0.75000  0.85402  0.20300  1
