CIF file written using JARVIS-Tools package.
data_Sr6GaN5
_symmetry_space_group_name_H-M  'P6_3/mcm'
_cell_length_a       6.68277
_cell_length_b       6.68277
_cell_length_c       13.0222
_cell_angle_alpha    90
_cell_angle_beta     90
_cell_angle_gamma    120

_symmetry_Int_Tables_number  193
_chemical_formula_structural  Sr6GaN5
_chemical_formula_sum  Sr2Ga2N0
_cell_volume  503.6482150746047
_cell_formula_units_Z  2
loop_
  _symmetry_equiv_pos_site_id
 _symmetry_equiv_pos_as_xyz
 1  'x, y, z'
loop_
 _atom_site_type_symbol
 _atom_site_label
 _atom_site_symmetry_multiplicity
 _atom_site_fract_x
 _atom_site_fract_y
 _atom_site_fract_z
 _atom_site_fract_occupancy
 Ga  Ga1  1  0.00000  0.00000  0.25000  1
 Ga  Ga2  1  0.00000  0.00000  0.75000  1
 N  N1  1  0.33333  0.66667  0.50000  1
 N  N2  1  0.66667  0.33333  0.50000  1
 N  N3  1  0.71369  -0.00000  0.75000  1
 N  N4  1  0.00000  0.28631  0.25000  1
 N  N5  1  0.71369  0.71369  0.25000  1
 N  N6  1  0.28631  0.28631  0.75000  1
 N  N7  1  0.33333  0.66667  0.00000  1
 N  N8  1  0.28631  0.00000  0.25000  1
 N  N9  1  0.66667  0.33333  0.00000  1
 N  N10  1  -0.00000  0.71369  0.75000  1
 Sr  Sr1  1  0.59421  0.59421  0.87617  1
 Sr  Sr2  1  0.00000  0.40579  0.87617  1
 Sr  Sr3  1  -0.00000  0.59421  0.37617  1
 Sr  Sr4  1  0.40579  0.00000  0.62383  1
 Sr  Sr5  1  0.59421  -0.00000  0.12383  1
 Sr  Sr6  1  0.59421  -0.00000  0.37617  1
 Sr  Sr7  1  0.40579  0.40579  0.12383  1
 Sr  Sr8  1  -0.00000  0.59421  0.12383  1
 Sr  Sr9  1  0.00000  0.40579  0.62383  1
 Sr  Sr10  1  0.59421  0.59421  0.62383  1
 Sr  Sr11  1  0.40579  0.00000  0.87617  1
 Sr  Sr12  1  0.40579  0.40579  0.37617  1
