CIF file written using JARVIS-Tools package.
data_ZrP2S6
_symmetry_space_group_name_H-M  'P4_2/m'
_cell_length_a       6.72493
_cell_length_b       6.72493
_cell_length_c       9.5581
_cell_angle_alpha    90
_cell_angle_beta     90
_cell_angle_gamma    90

_symmetry_Int_Tables_number  84
_chemical_formula_structural  ZrP2S6
_chemical_formula_sum  Zr2P4S2
_cell_volume  432.26167542372326
_cell_formula_units_Z  2
loop_
  _symmetry_equiv_pos_site_id
 _symmetry_equiv_pos_as_xyz
 1  'x, y, z'
loop_
 _atom_site_type_symbol
 _atom_site_label
 _atom_site_symmetry_multiplicity
 _atom_site_fract_x
 _atom_site_fract_y
 _atom_site_fract_z
 _atom_site_fract_occupancy
 P  P1  1  0.65727  0.05919  0.00000  1
 P  P2  1  0.34273  0.94081  0.00000  1
 P  P3  1  0.05919  0.34273  0.50000  1
 P  P4  1  0.94081  0.65727  0.50000  1
 S  S1  1  0.69238  0.21507  0.82057  1
 S  S2  1  0.21507  0.30762  0.67943  1
 S  S3  1  0.69238  0.21507  0.17943  1
 S  S4  1  0.78493  0.69238  0.67943  1
 S  S5  1  0.81632  0.15864  0.50000  1
 S  S6  1  0.15864  0.18368  0.00000  1
 S  S7  1  0.30762  0.78493  0.17943  1
 S  S8  1  0.21507  0.30762  0.32057  1
 S  S9  1  0.18368  0.84136  0.50000  1
 S  S10  1  0.30762  0.78493  0.82057  1
 S  S11  1  0.78493  0.69238  0.32057  1
 S  S12  1  0.84136  0.81632  0.00000  1
 Zr  Zr1  1  0.00000  0.00000  0.25000  1
 Zr  Zr2  1  0.00000  0.00000  0.75000  1
