CIF file written using JARVIS-Tools package.
data_Li2CrSi2O6
_symmetry_space_group_name_H-M  'C2/c'
_cell_length_a       5.78228
_cell_length_b       5.78228
_cell_length_c       8.91945
_cell_angle_alpha    89.6165
_cell_angle_beta     90.3835
_cell_angle_gamma    62.3045

_symmetry_Int_Tables_number  15
_chemical_formula_structural  Li2CrSi2O6
_chemical_formula_sum  Li4Cr2Si4O2
_cell_volume  264.0302837311011
_cell_formula_units_Z  2
loop_
  _symmetry_equiv_pos_site_id
 _symmetry_equiv_pos_as_xyz
 1  'x, y, z'
loop_
 _atom_site_type_symbol
 _atom_site_label
 _atom_site_symmetry_multiplicity
 _atom_site_fract_x
 _atom_site_fract_y
 _atom_site_fract_z
 _atom_site_fract_occupancy
 Cr  Cr1  1  0.23886  0.23886  0.75000  1
 Cr  Cr2  1  0.76114  0.76114  0.25000  1
 Li  Li1  1  0.60541  0.69050  0.88493  1
 Li  Li2  1  0.30950  0.39459  0.38493  1
 Li  Li3  1  0.69050  0.60541  0.61507  1
 Li  Li4  1  0.39459  0.30950  0.11507  1
 O  O1  1  0.84644  0.35131  0.77644  1
 O  O2  1  0.15356  0.64869  0.22356  1
 O  O3  1  0.23730  0.49156  0.59096  1
 O  O4  1  0.50844  0.76270  0.09096  1
 O  O5  1  0.35131  0.84644  0.72356  1
 O  O6  1  0.00000  -0.00000  0.50000  1
 O  O7  1  0.13123  0.13123  0.25000  1
 O  O8  1  0.76270  0.50844  0.40904  1
 O  O9  1  0.49156  0.23730  0.90904  1
 O  O10  1  0.86877  0.86877  0.75000  1
 O  O11  1  0.00000  0.00000  0.00000  1
 O  O12  1  0.64869  0.15356  0.27644  1
 Si  Si1  1  0.87275  0.20678  0.36056  1
 Si  Si2  1  0.79322  0.12725  0.86056  1
 Si  Si3  1  0.20678  0.87275  0.13944  1
 Si  Si4  1  0.12725  0.79322  0.63944  1
