CIF file written using JARVIS-Tools package.
data_UCo2Ge2
_symmetry_space_group_name_H-M  'I4/mmm'
_cell_length_a       3.9981
_cell_length_b       3.99809
_cell_length_c       5.69141
_cell_angle_alpha    110.563
_cell_angle_beta     110.563
_cell_angle_gamma    90

_symmetry_Int_Tables_number  139
_chemical_formula_structural  UCo2Ge2
_chemical_formula_sum  UCo2Ge2
_cell_volume  78.95855604335668
_cell_formula_units_Z  1
loop_
  _symmetry_equiv_pos_site_id
 _symmetry_equiv_pos_as_xyz
 1  'x, y, z'
loop_
 _atom_site_type_symbol
 _atom_site_label
 _atom_site_symmetry_multiplicity
 _atom_site_fract_x
 _atom_site_fract_y
 _atom_site_fract_z
 _atom_site_fract_occupancy
 Co  Co1  1  0.25000  0.75000  0.50000  1
 Co  Co2  1  0.75000  0.25000  0.50000  1
 Ge  Ge1  1  0.62716  0.62716  0.25433  1
 Ge  Ge2  1  0.37284  0.37284  0.74567  1
 U  U1  1  0.00000  0.00000  0.00000  1
