CIF file written using JARVIS-Tools package.
data_CeIn2Ir
_symmetry_space_group_name_H-M  'Cmcm'
_cell_length_a       4.29375
_cell_length_b       5.49777
_cell_length_c       8.36653
_cell_angle_alpha    90
_cell_angle_beta     90
_cell_angle_gamma    112.986

_symmetry_Int_Tables_number  63
_chemical_formula_structural  CeIn2Ir
_chemical_formula_sum  Ce2In4Ir2
_cell_volume  181.82002240925172
_cell_formula_units_Z  2
loop_
  _symmetry_equiv_pos_site_id
 _symmetry_equiv_pos_as_xyz
 1  'x, y, z'
loop_
 _atom_site_type_symbol
 _atom_site_label
 _atom_site_symmetry_multiplicity
 _atom_site_fract_x
 _atom_site_fract_y
 _atom_site_fract_z
 _atom_site_fract_occupancy
 Ce  Ce1  1  0.06786  0.13571  0.75000  1
 Ce  Ce2  1  0.93214  0.86429  0.25000  1
 In  In1  1  0.35723  0.71446  0.54984  1
 In  In2  1  0.64277  0.28554  0.45016  1
 In  In3  1  0.35723  0.71446  0.95016  1
 In  In4  1  0.64277  0.28554  0.04984  1
 Ir  Ir1  1  0.22456  0.44912  0.25000  1
 Ir  Ir2  1  0.77544  0.55088  0.75000  1
