CIF file written using JARVIS-Tools package.
data_TeO2
_symmetry_space_group_name_H-M  'P4_32_12'
_cell_length_a       4.86717
_cell_length_b       4.86717
_cell_length_c       7.5619
_cell_angle_alpha    90
_cell_angle_beta     90
_cell_angle_gamma    90

_symmetry_Int_Tables_number  96
_chemical_formula_structural  TeO2
_chemical_formula_sum  Te4O8
_cell_volume  179.13632666702722
_cell_formula_units_Z  4
loop_
  _symmetry_equiv_pos_site_id
 _symmetry_equiv_pos_as_xyz
 1  'x, y, z'
loop_
 _atom_site_type_symbol
 _atom_site_label
 _atom_site_symmetry_multiplicity
 _atom_site_fract_x
 _atom_site_fract_y
 _atom_site_fract_z
 _atom_site_fract_occupancy
 O  O1  1  0.25110  0.14047  0.19130  1
 O  O2  1  0.35953  0.75110  0.94130  1
 O  O3  1  0.64047  0.24890  0.44130  1
 O  O4  1  0.75110  0.35953  0.05870  1
 O  O5  1  0.24890  0.64047  0.55870  1
 O  O6  1  0.74890  0.85953  0.69130  1
 O  O7  1  0.14047  0.25110  0.80870  1
 O  O8  1  0.85953  0.74890  0.30870  1
 Te  Te1  1  0.02039  0.02039  0.00000  1
 Te  Te2  1  0.47961  0.52039  0.75000  1
 Te  Te3  1  0.52039  0.47961  0.25000  1
 Te  Te4  1  0.97961  0.97961  0.50000  1
