CIF file written using JARVIS-Tools package.
data_K4Sb2O3
_symmetry_space_group_name_H-M  'P6_3mc'
_cell_length_a       6.26799
_cell_length_b       6.26799
_cell_length_c       14.3819
_cell_angle_alpha    90
_cell_angle_beta     90
_cell_angle_gamma    120

_symmetry_Int_Tables_number  186
_chemical_formula_structural  K4Sb2O3
_chemical_formula_sum  K8Sb4O6
_cell_volume  489.333776108958
_cell_formula_units_Z  2
loop_
  _symmetry_equiv_pos_site_id
 _symmetry_equiv_pos_as_xyz
 1  'x, y, z'
loop_
 _atom_site_type_symbol
 _atom_site_label
 _atom_site_symmetry_multiplicity
 _atom_site_fract_x
 _atom_site_fract_y
 _atom_site_fract_z
 _atom_site_fract_occupancy
 K  K1  1  0.00000  0.00000  0.73379  1
 K  K2  1  0.33333  0.66667  0.60678  1
 K  K3  1  0.33333  0.66667  0.94574  1
 K  K4  1  0.66667  0.33333  0.44574  1
 K  K5  1  0.00000  0.00000  0.49344  1
 K  K6  1  0.00000  0.00000  0.99344  1
 K  K7  1  0.66667  0.33333  0.10678  1
 K  K8  1  0.00000  0.00000  0.23379  1
 O  O1  1  0.64687  0.82344  0.10888  1
 O  O2  1  0.17656  0.35313  0.10888  1
 O  O3  1  0.82344  0.17656  0.60888  1
 O  O4  1  0.82344  0.64687  0.60888  1
 O  O5  1  0.17656  0.82344  0.10888  1
 O  O6  1  0.35313  0.17656  0.60888  1
 Sb  Sb1  1  0.33333  0.66667  0.36352  1
 Sb  Sb2  1  0.66667  0.33333  0.67171  1
 Sb  Sb3  1  0.66667  0.33333  0.86352  1
 Sb  Sb4  1  0.33333  0.66667  0.17171  1
