CIF file written using JARVIS-Tools package.
data_K2NdPCO7
_symmetry_space_group_name_H-M  'P2_1/m'
_cell_length_a       5.16846
_cell_length_b       7.2899
_cell_length_c       9.6286
_cell_angle_alpha    90
_cell_angle_beta     100.051
_cell_angle_gamma    90

_symmetry_Int_Tables_number  11
_chemical_formula_structural  K2NdPCO7
_chemical_formula_sum  K4Nd2P2C2O4
_cell_volume  357.21414073926087
_cell_formula_units_Z  2
loop_
  _symmetry_equiv_pos_site_id
 _symmetry_equiv_pos_as_xyz
 1  'x, y, z'
loop_
 _atom_site_type_symbol
 _atom_site_label
 _atom_site_symmetry_multiplicity
 _atom_site_fract_x
 _atom_site_fract_y
 _atom_site_fract_z
 _atom_site_fract_occupancy
 C  C1  1  0.58243  0.75000  0.06029  1
 C  C2  1  0.41757  0.25000  0.93971  1
 K  K1  1  0.14444  0.03824  0.17952  1
 K  K2  1  0.14444  0.46176  0.17952  1
 K  K3  1  0.85556  0.53824  0.82048  1
 K  K4  1  0.85556  0.96176  0.82048  1
 Nd  Nd1  1  0.74367  0.75000  0.37041  1
 Nd  Nd2  1  0.25633  0.25000  0.62959  1
 O  O1  1  0.51644  0.25000  0.06917  1
 O  O2  1  0.16262  0.25000  0.89304  1
 O  O3  1  0.43524  0.75000  0.15937  1
 O  O4  1  0.77689  0.07454  0.36031  1
 O  O5  1  0.77689  0.42546  0.36031  1
 O  O6  1  0.83738  0.75000  0.10696  1
 O  O7  1  0.36877  0.25000  0.40071  1
 O  O8  1  0.22311  0.92546  0.63969  1
 O  O9  1  0.76877  0.25000  0.58737  1
 O  O10  1  0.22311  0.57454  0.63969  1
 O  O11  1  0.23123  0.75000  0.41263  1
 O  O12  1  0.56476  0.25000  0.84063  1
 O  O13  1  0.63123  0.75000  0.59929  1
 O  O14  1  0.48356  0.75000  0.93083  1
 P  P1  1  0.32595  0.75000  0.57770  1
 P  P2  1  0.67405  0.25000  0.42230  1
