CIF file written using JARVIS-Tools package.
data_Tl2Te3
_symmetry_space_group_name_H-M  'C2/c'
_cell_length_a       6.60872
_cell_length_b       7.47436
_cell_length_c       8.06489
_cell_angle_alpha    104.424
_cell_angle_beta     90
_cell_angle_gamma    116.237

_symmetry_Int_Tables_number  15
_chemical_formula_structural  Tl2Te3
_chemical_formula_sum  Tl4Te6
_cell_volume  343.27363366987066
_cell_formula_units_Z  2
loop_
  _symmetry_equiv_pos_site_id
 _symmetry_equiv_pos_as_xyz
 1  'x, y, z'
loop_
 _atom_site_type_symbol
 _atom_site_label
 _atom_site_symmetry_multiplicity
 _atom_site_fract_x
 _atom_site_fract_y
 _atom_site_fract_z
 _atom_site_fract_occupancy
 Te  Te1  1  0.32409  0.36164  0.07875  1
 Te  Te2  1  0.96244  0.63836  0.42125  1
 Te  Te3  1  0.67591  0.63836  0.92125  1
 Te  Te4  1  0.03756  0.36164  0.57875  1
 Te  Te5  1  0.86099  0.00000  0.25000  1
 Te  Te6  1  0.13901  0.00000  0.75000  1
 Tl  Tl1  1  0.54573  0.78336  0.55234  1
 Tl  Tl2  1  0.76237  0.21664  0.94766  1
 Tl  Tl3  1  0.45427  0.21664  0.44766  1
 Tl  Tl4  1  0.23763  0.78336  0.05234  1
