CIF file written using JARVIS-Tools package.
data_YBO3
_symmetry_space_group_name_H-M  'Cmcm'
_cell_length_a       6.56285
_cell_length_b       6.55516
_cell_length_c       8.87967
_cell_angle_alpha    90
_cell_angle_beta     90
_cell_angle_gamma    119.961

_symmetry_Int_Tables_number  63
_chemical_formula_structural  YBO3
_chemical_formula_sum  Y6B6O8
_cell_volume  330.95977170893394
_cell_formula_units_Z  6
loop_
  _symmetry_equiv_pos_site_id
 _symmetry_equiv_pos_as_xyz
 1  'x, y, z'
loop_
 _atom_site_type_symbol
 _atom_site_label
 _atom_site_symmetry_multiplicity
 _atom_site_fract_x
 _atom_site_fract_y
 _atom_site_fract_z
 _atom_site_fract_occupancy
 B  B1  1  0.33337  0.24320  0.50000  1
 B  B2  1  0.09191  0.33234  0.00000  1
 B  B3  1  0.57483  0.57380  0.00000  1
 B  B4  1  0.09191  0.75944  0.50000  1
 B  B5  1  0.57483  0.00090  0.50000  1
 B  B6  1  0.33337  0.09004  0.00000  1
 O  O1  1  0.33337  0.98165  0.85644  1
 O  O2  1  0.68411  0.68362  0.14149  1
 O  O3  1  0.98264  0.33289  0.14149  1
 O  O4  1  0.98264  0.64962  0.35851  1
 O  O5  1  0.98264  0.33289  0.85851  1
 O  O6  1  0.55080  0.21884  0.50000  1
 O  O7  1  0.11595  0.00142  0.50000  1
 O  O8  1  0.33337  0.78436  0.50000  1
 O  O9  1  0.33337  0.54888  0.00000  1
 O  O10  1  0.33337  0.98165  0.14356  1
 O  O11  1  0.33337  0.35159  0.35644  1
 O  O12  1  0.68411  0.68362  0.85851  1
 O  O13  1  0.68411  0.00035  0.35851  1
 O  O14  1  0.68411  0.00035  0.64149  1
 O  O15  1  0.55080  0.33182  0.00000  1
 O  O16  1  0.98264  0.64962  0.64149  1
 O  O17  1  0.11595  0.11440  0.00000  1
 O  O18  1  0.33337  0.35159  0.64356  1
 Y  Y1  1  0.99232  0.99609  0.25000  1
 Y  Y2  1  0.67443  0.33715  0.25000  1
 Y  Y3  1  0.67443  0.33715  0.75000  1
 Y  Y4  1  0.33337  0.66662  0.25000  1
 Y  Y5  1  0.33337  0.66662  0.75000  1
 Y  Y6  1  0.99232  0.99609  0.75000  1
