CIF file written using JARVIS-Tools package.
data_Mn3Cd2O8
_symmetry_space_group_name_H-M  'C2/m'
_cell_length_a       4.97084
_cell_length_b       5.84999
_cell_length_c       6.18156
_cell_angle_alpha    118.241
_cell_angle_beta     106.946
_cell_angle_gamma    90

_symmetry_Int_Tables_number  12
_chemical_formula_structural  Mn3Cd2O8
_chemical_formula_sum  Mn3Cd2O8
_cell_volume  149.44026259482249
_cell_formula_units_Z  1
loop_
  _symmetry_equiv_pos_site_id
 _symmetry_equiv_pos_as_xyz
 1  'x, y, z'
loop_
 _atom_site_type_symbol
 _atom_site_label
 _atom_site_symmetry_multiplicity
 _atom_site_fract_x
 _atom_site_fract_y
 _atom_site_fract_z
 _atom_site_fract_occupancy
 Cd  Cd1  1  0.66270  0.72103  0.44206  1
 Cd  Cd2  1  0.33730  0.27897  0.55794  1
 Mn  Mn1  1  0.50000  1.00000  -0.00000  1
 Mn  Mn2  1  0.00000  0.74119  1.00000  1
 Mn  Mn3  1  0.00000  0.25881  0.00000  1
 O  O1  1  0.04610  0.39662  0.79324  1
 O  O2  1  0.95390  0.60338  0.20677  1
 O  O3  1  0.09775  0.90280  0.80560  1
 O  O4  1  0.90225  0.09720  0.19440  1
 O  O5  1  0.38993  0.32450  0.20433  1
 O  O6  1  0.38993  0.87983  0.20433  1
 O  O7  1  0.61007  0.12017  0.79567  1
 O  O8  1  0.61007  0.67550  0.79567  1
