CIF file written using JARVIS-Tools package.
data_MgBi2O4
_symmetry_space_group_name_H-M  'I-42d'
_cell_length_a       6.83698
_cell_length_b       6.83705
_cell_length_c       6.93727
_cell_angle_alpha    120.486
_cell_angle_beta     120.486
_cell_angle_gamma    88.3057

_symmetry_Int_Tables_number  122
_chemical_formula_structural  MgBi2O4
_chemical_formula_sum  Mg2Bi4O8
_cell_volume  229.20471760937522
_cell_formula_units_Z  2
loop_
  _symmetry_equiv_pos_site_id
 _symmetry_equiv_pos_as_xyz
 1  'x, y, z'
loop_
 _atom_site_type_symbol
 _atom_site_label
 _atom_site_symmetry_multiplicity
 _atom_site_fract_x
 _atom_site_fract_y
 _atom_site_fract_z
 _atom_site_fract_occupancy
 Bi  Bi1  1  0.93837  0.43839  0.43840  1
 Bi  Bi2  1  -0.00005  0.00000  0.56161  1
 Bi  Bi3  1  0.06167  0.56166  0.06166  1
 Bi  Bi4  1  0.50001  0.49995  0.93833  1
 Mg  Mg1  1  0.62500  0.87502  0.75004  1
 Mg  Mg2  1  0.37499  0.12499  0.24997  1
 O  O1  1  0.26375  0.76251  0.01674  1
 O  O2  1  0.25303  0.25423  0.49049  1
 O  O3  1  0.73746  0.23626  0.48322  1
 O  O4  1  0.74698  0.74575  0.98324  1
 O  O5  1  0.26251  0.76375  0.50950  1
 O  O6  1  0.75423  0.75303  0.51679  1
 O  O7  1  0.24574  0.24697  0.00947  1
 O  O8  1  0.73630  0.23749  -0.00946  1
