CIF file written using JARVIS-Tools package.
data_CaCuO2
_symmetry_space_group_name_H-M  'C2/m'
_cell_length_a       3.03286
_cell_length_b       8.27112
_cell_length_c       8.5755
_cell_angle_alpha    94.6925
_cell_angle_beta     89.9954
_cell_angle_gamma    100.556

_symmetry_Int_Tables_number  12
_chemical_formula_structural  CaCuO2
_chemical_formula_sum  Ca4Cu4O8
_cell_volume  210.74306351202475
_cell_formula_units_Z  4
loop_
  _symmetry_equiv_pos_site_id
 _symmetry_equiv_pos_as_xyz
 1  'x, y, z'
loop_
 _atom_site_type_symbol
 _atom_site_label
 _atom_site_symmetry_multiplicity
 _atom_site_fract_x
 _atom_site_fract_y
 _atom_site_fract_z
 _atom_site_fract_occupancy
 Ca  Ca1  1  0.71041  0.92690  0.33541  1
 Ca  Ca2  1  0.29356  0.09319  0.69279  1
 Ca  Ca3  1  0.84662  0.19943  0.06060  1
 Ca  Ca4  1  0.15735  0.82065  0.96760  1
 Cu  Cu1  1  0.61935  0.74485  0.62571  1
 Cu  Cu2  1  0.02598  0.55738  0.19890  1
 Cu  Cu3  1  0.97796  0.46270  0.82931  1
 Cu  Cu4  1  0.38464  0.27525  0.40251  1
 O  O1  1  0.83890  0.18375  0.50763  1
 O  O2  1  0.55247  0.61172  0.79331  1
 O  O3  1  0.45147  0.40836  0.23489  1
 O  O4  1  0.16509  0.83635  0.52057  1
 O  O5  1  0.73944  0.98492  0.85413  1
 O  O6  1  0.59649  0.69849  0.15167  1
 O  O7  1  0.26453  0.03516  0.17405  1
 O  O8  1  0.40745  0.32158  0.87652  1
