CIF file written using JARVIS-Tools package.
data_YbH2ClO2
_symmetry_space_group_name_H-M  'P2_1/m'
_cell_length_a       5.95386
_cell_length_b       3.59567
_cell_length_c       6.78434
_cell_angle_alpha    90
_cell_angle_beta     95.2286
_cell_angle_gamma    90

_symmetry_Int_Tables_number  11
_chemical_formula_structural  YbH2ClO2
_chemical_formula_sum  Yb2H4Cl2O4
_cell_volume  144.63566837932763
_cell_formula_units_Z  2
loop_
  _symmetry_equiv_pos_site_id
 _symmetry_equiv_pos_as_xyz
 1  'x, y, z'
loop_
 _atom_site_type_symbol
 _atom_site_label
 _atom_site_symmetry_multiplicity
 _atom_site_fract_x
 _atom_site_fract_y
 _atom_site_fract_z
 _atom_site_fract_occupancy
 Cl  Cl1  1  0.18923  0.75000  0.41792  1
 Cl  Cl2  1  0.81076  0.25000  0.58207  1
 H  H1  1  0.83604  0.25000  0.24221  1
 H  H2  1  0.60275  0.75000  0.31570  1
 H  H3  1  0.39725  0.25000  0.68429  1
 H  H4  1  0.16396  0.75000  0.75779  1
 O  O1  1  0.87092  0.25000  0.10410  1
 O  O2  1  0.50900  0.75000  0.18906  1
 O  O3  1  0.49100  0.25000  0.81094  1
 O  O4  1  0.12908  0.75000  0.89589  1
 Yb  Yb1  1  0.25798  0.25000  0.08554  1
 Yb  Yb2  1  0.74202  0.75000  0.91446  1
