CIF file written using JARVIS-Tools package.
data_Ta2H4O7
_symmetry_space_group_name_H-M  'Cc'
_cell_length_a       7.45967
_cell_length_b       7.55057
_cell_length_c       7.39928
_cell_angle_alpha    59.8549
_cell_angle_beta     61.0797
_cell_angle_gamma    62.0946

_symmetry_Int_Tables_number  9
_chemical_formula_structural  Ta2H4O7
_chemical_formula_sum  Ta4H8O4
_cell_volume  301.173678864701
_cell_formula_units_Z  2
loop_
  _symmetry_equiv_pos_site_id
 _symmetry_equiv_pos_as_xyz
 1  'x, y, z'
loop_
 _atom_site_type_symbol
 _atom_site_label
 _atom_site_symmetry_multiplicity
 _atom_site_fract_x
 _atom_site_fract_y
 _atom_site_fract_z
 _atom_site_fract_occupancy
 H  H1  1  0.94565  0.32374  0.92623  1
 H  H2  1  0.94027  0.90894  0.33247  1
 H  H3  1  -0.02012  0.22879  0.26557  1
 H  H4  1  0.20192  0.10369  0.13302  1
 H  H5  1  0.67626  0.05435  0.69562  1
 H  H6  1  0.77121  0.02012  -0.02576  1
 H  H7  1  0.89631  0.79808  0.93863  1
 H  H8  1  0.09106  0.05973  0.68167  1
 O  O1  1  0.84158  0.41195  0.44432  1
 O  O2  1  0.86410  0.95356  0.85945  1
 O  O3  1  0.23191  0.50323  0.56553  1
 O  O4  1  0.19968  0.14115  0.57688  1
 O  O5  1  0.60328  0.51150  0.19762  1
 O  O6  1  0.22425  0.52304  0.19115  1
 O  O7  1  0.58805  0.15842  0.19785  1
 O  O8  1  0.49677  0.76809  0.80067  1
 O  O9  1  0.04644  0.13590  0.17712  1
 O  O10  1  0.48850  0.39672  0.81239  1
 O  O11  1  0.86163  0.39551  0.82394  1
 O  O12  1  0.47696  0.77575  0.43844  1
 O  O13  1  0.60449  0.13837  0.58108  1
 O  O14  1  0.85885  0.80032  0.41771  1
 Ta  Ta1  1  0.52392  0.47616  0.50253  1
 Ta  Ta2  1  0.02865  0.48537  0.48295  1
 Ta  Ta3  1  0.52384  0.47608  0.00260  1
 Ta  Ta4  1  0.51463  0.97135  0.49697  1
