CIF file written using JARVIS-Tools package.
data_VOF3
_symmetry_space_group_name_H-M  'Cm'
_cell_length_a       5.63446
_cell_length_b       7.34271
_cell_length_c       7.34352
_cell_angle_alpha    66.5467
_cell_angle_beta     69.7952
_cell_angle_gamma    69.8097

_symmetry_Int_Tables_number  8
_chemical_formula_structural  VOF3
_chemical_formula_sum  V4O4F2
_cell_volume  253.8420712680795
_cell_formula_units_Z  4
loop_
  _symmetry_equiv_pos_site_id
 _symmetry_equiv_pos_as_xyz
 1  'x, y, z'
loop_
 _atom_site_type_symbol
 _atom_site_label
 _atom_site_symmetry_multiplicity
 _atom_site_fract_x
 _atom_site_fract_y
 _atom_site_fract_z
 _atom_site_fract_occupancy
 F  F1  1  0.38270  0.38125  0.38123  1
 F  F2  1  0.97590  0.80064  0.22215  1
 F  F3  1  0.22538  0.05586  0.47589  1
 F  F4  1  0.73505  0.97111  0.54865  1
 F  F5  1  0.65321  0.61756  0.61765  1
 F  F6  1  0.22546  0.47593  0.05582  1
 F  F7  1  0.49816  0.30236  0.72167  1
 F  F8  1  0.58758  0.13698  0.13690  1
 F  F9  1  0.86626  0.87694  0.87695  1
 F  F10  1  -0.02403  0.22215  0.80063  1
 F  F11  1  0.73496  0.54864  0.97117  1
 F  F12  1  0.49825  0.72168  0.30243  1
 O  O1  1  0.11380  0.63375  0.63377  1
 O  O2  1  0.86627  0.36914  0.36912  1
 O  O3  1  0.34755  0.87617  0.87616  1
 O  O4  1  0.13564  0.11943  0.11940  1
 V  V1  1  0.05227  0.97370  0.97369  1
 V  V2  1  0.56679  0.46972  0.46974  1
 V  V3  1  0.81188  0.72363  0.72367  1
 V  V4  1  0.24693  0.22335  0.22330  1
