CIF file written using JARVIS-Tools package.
data_LiMn3O6
_symmetry_space_group_name_H-M  'C2/m'
_cell_length_a       4.92872
_cell_length_b       4.92872
_cell_length_c       5.13165
_cell_angle_alpha    99.2049
_cell_angle_beta     99.2049
_cell_angle_gamma    119.952

_symmetry_Int_Tables_number  12
_chemical_formula_structural  LiMn3O6
_chemical_formula_sum  LiMn3O6
_cell_volume  102.34203279988876
_cell_formula_units_Z  1
loop_
  _symmetry_equiv_pos_site_id
 _symmetry_equiv_pos_as_xyz
 1  'x, y, z'
loop_
 _atom_site_type_symbol
 _atom_site_label
 _atom_site_symmetry_multiplicity
 _atom_site_fract_x
 _atom_site_fract_y
 _atom_site_fract_z
 _atom_site_fract_occupancy
 Li  Li1  1  0.50000  0.50000  0.50000  1
 Mn  Mn1  1  0.00000  0.00000  0.00000  1
 Mn  Mn2  1  0.66872  0.33128  0.00000  1
 Mn  Mn3  1  0.33128  0.66872  -0.00000  1
 O  O1  1  0.27056  0.27056  0.79368  1
 O  O2  1  0.40263  0.07521  0.20772  1
 O  O3  1  0.07521  0.40263  0.20772  1
 O  O4  1  0.92479  0.59737  0.79228  1
 O  O5  1  0.59737  0.92479  0.79228  1
 O  O6  1  0.72944  0.72944  0.20632  1
