CIF file written using JARVIS-Tools package.
data_K4P2O7
_symmetry_space_group_name_H-M  'P6_3/mmc'
_cell_length_a       5.92911
_cell_length_b       5.92911
_cell_length_c       14.9318
_cell_angle_alpha    90
_cell_angle_beta     90
_cell_angle_gamma    120

_symmetry_Int_Tables_number  194
_chemical_formula_structural  K4P2O7
_chemical_formula_sum  K8P4O4
_cell_volume  454.5919862603018
_cell_formula_units_Z  2
loop_
  _symmetry_equiv_pos_site_id
 _symmetry_equiv_pos_as_xyz
 1  'x, y, z'
loop_
 _atom_site_type_symbol
 _atom_site_label
 _atom_site_symmetry_multiplicity
 _atom_site_fract_x
 _atom_site_fract_y
 _atom_site_fract_z
 _atom_site_fract_occupancy
 K  K1  1  0.33333  0.66667  0.91950  1
 K  K2  1  0.66667  0.33333  0.08050  1
 K  K3  1  0.66667  0.33333  0.41950  1
 K  K4  1  0.33333  0.66667  0.58050  1
 K  K5  1  0.00000  0.00000  0.25000  1
 K  K6  1  0.00000  0.00000  0.75000  1
 K  K7  1  0.00000  0.00000  0.00000  1
 K  K8  1  0.00000  0.00000  0.50000  1
 O  O1  1  0.33333  0.66667  0.25000  1
 O  O2  1  0.19023  0.38046  0.11347  1
 O  O3  1  0.61954  0.80977  0.11347  1
 O  O4  1  0.80977  0.19023  0.88653  1
 O  O5  1  0.80977  0.61954  0.88653  1
 O  O6  1  0.19023  0.80977  0.11347  1
 O  O7  1  0.80977  0.19023  0.61347  1
 O  O8  1  0.38046  0.19023  0.61347  1
 O  O9  1  0.80977  0.61954  0.61347  1
 O  O10  1  0.19023  0.38046  0.38653  1
 O  O11  1  0.61954  0.80977  0.38653  1
 O  O12  1  0.38046  0.19023  0.88653  1
 O  O13  1  0.19023  0.80977  0.38653  1
 O  O14  1  0.66667  0.33333  0.75000  1
 P  P1  1  0.66667  0.33333  0.85813  1
 P  P2  1  0.33333  0.66667  0.14187  1
 P  P3  1  0.66667  0.33333  0.64187  1
 P  P4  1  0.33333  0.66667  0.35813  1
