CIF file written using JARVIS-Tools package.
data_K3LiP2O7
_symmetry_space_group_name_H-M  'C222_1'
_cell_length_a       5.56179
_cell_length_b       5.56179
_cell_length_c       13.3272
_cell_angle_alpha    90
_cell_angle_beta     90
_cell_angle_gamma    114.006

_symmetry_Int_Tables_number  20
_chemical_formula_structural  K3LiP2O7
_chemical_formula_sum  K6Li2P4O4
_cell_volume  376.59699723680535
_cell_formula_units_Z  2
loop_
  _symmetry_equiv_pos_site_id
 _symmetry_equiv_pos_as_xyz
 1  'x, y, z'
loop_
 _atom_site_type_symbol
 _atom_site_label
 _atom_site_symmetry_multiplicity
 _atom_site_fract_x
 _atom_site_fract_y
 _atom_site_fract_z
 _atom_site_fract_occupancy
 K  K1  1  0.86434  0.86434  0.50000  1
 K  K2  1  0.13566  0.13566  0.00000  1
 K  K3  1  0.53531  0.22165  0.37649  1
 K  K4  1  0.22165  0.53531  0.62351  1
 K  K5  1  0.46469  0.77835  0.87649  1
 K  K6  1  0.77835  0.46469  0.12351  1
 Li  Li1  1  0.01133  0.98867  0.25000  1
 Li  Li2  1  0.98867  0.01133  0.75000  1
 O  O1  1  0.37916  0.62084  0.25000  1
 O  O2  1  0.65944  0.96433  0.68170  1
 O  O3  1  0.03567  0.34056  0.81830  1
 O  O4  1  0.34056  0.03567  0.18170  1
 O  O5  1  0.05671  0.25463  0.35302  1
 O  O6  1  0.96433  0.65944  0.31830  1
 O  O7  1  0.94329  0.74537  0.85302  1
 O  O8  1  0.34298  0.69610  0.43498  1
 O  O9  1  0.74537  0.94329  0.14698  1
 O  O10  1  0.65702  0.30390  0.93498  1
 O  O11  1  0.30390  0.65702  0.06502  1
 O  O12  1  0.25463  0.05671  0.64698  1
 O  O13  1  0.69610  0.34298  0.56502  1
 O  O14  1  0.62084  0.37916  0.75000  1
 P  P1  1  0.55641  0.17347  0.65480  1
 P  P2  1  0.17347  0.55641  0.34520  1
 P  P3  1  0.82653  0.44359  0.84520  1
 P  P4  1  0.44359  0.82653  0.15480  1
