CIF file written using JARVIS-Tools package.
data_V3As4O16
_symmetry_space_group_name_H-M  'P2_1/c'
_cell_length_a       4.69259
_cell_length_b       7.56894
_cell_length_c       15.8472
_cell_angle_alpha    103.665
_cell_angle_beta     90
_cell_angle_gamma    90

_symmetry_Int_Tables_number  14
_chemical_formula_structural  V3As4O16
_chemical_formula_sum  V6As8O32
_cell_volume  546.9258814817227
_cell_formula_units_Z  2
loop_
  _symmetry_equiv_pos_site_id
 _symmetry_equiv_pos_as_xyz
 1  'x, y, z'
loop_
 _atom_site_type_symbol
 _atom_site_label
 _atom_site_symmetry_multiplicity
 _atom_site_fract_x
 _atom_site_fract_y
 _atom_site_fract_z
 _atom_site_fract_occupancy
 As  As1  1  0.98200  0.22353  0.90515  1
 As  As2  1  0.97220  0.55744  0.66474  1
 As  As3  1  0.02780  0.44256  0.33526  1
 As  As4  1  0.01800  0.77647  0.09485  1
 As  As5  1  0.52780  0.05744  0.16474  1
 As  As6  1  0.51800  0.72353  0.40515  1
 As  As7  1  0.48200  0.27647  0.59485  1
 As  As8  1  0.47220  0.94256  0.83526  1
 O  O1  1  0.80905  0.58239  0.42000  1
 O  O2  1  0.19095  0.41761  0.58000  1
 O  O3  1  0.27642  0.57373  0.92603  1
 O  O4  1  0.27984  0.08938  0.60528  1
 O  O5  1  0.34480  0.26759  0.17028  1
 O  O6  1  0.88889  0.46738  0.23561  1
 O  O7  1  0.22358  0.07373  0.42603  1
 O  O8  1  0.72016  0.91062  0.39472  1
 O  O9  1  0.61111  0.96738  0.73561  1
 O  O10  1  0.38889  0.03262  0.26439  1
 O  O11  1  0.33487  0.37857  0.38485  1
 O  O12  1  0.78067  0.84763  0.17829  1
 O  O13  1  0.15520  0.76759  0.67028  1
 O  O14  1  0.21933  0.15237  0.82171  1
 O  O15  1  0.69435  0.22416  0.50167  1
 O  O16  1  0.11111  0.53262  0.76439  1
 O  O17  1  0.71933  0.34763  0.67829  1
 O  O18  1  0.19435  0.27584  0.99833  1
 O  O19  1  0.65520  0.73241  0.82972  1
 O  O20  1  0.80565  0.72416  0.00167  1
 O  O21  1  0.28067  0.65237  0.32171  1
 O  O22  1  0.30905  0.91761  0.08000  1
 O  O23  1  0.77642  0.92627  0.57397  1
 O  O24  1  0.66513  0.62143  0.61515  1
 O  O25  1  0.16513  0.87857  0.88485  1
 O  O26  1  0.22016  0.58938  0.10528  1
 O  O27  1  0.77984  0.41062  0.89472  1
 O  O28  1  0.72358  0.42627  0.07397  1
 O  O29  1  0.83487  0.12143  0.11515  1
 O  O30  1  0.84480  0.23241  0.32972  1
 O  O31  1  0.69095  0.08239  0.92000  1
 O  O32  1  0.30565  0.77584  0.49833  1
 V  V1  1  0.00000  0.00000  0.50000  1
 V  V2  1  0.50000  0.50000  -0.00000  1
 V  V3  1  0.47997  0.84794  0.62658  1
 V  V4  1  0.52003  0.15206  0.37342  1
 V  V5  1  0.97997  0.65206  0.87342  1
 V  V6  1  0.02003  0.34794  0.12658  1
