CIF file written using JARVIS-Tools package.
data_CdC2O4
_symmetry_space_group_name_H-M  'P2_1/c'
_cell_length_a       5.91148
_cell_length_b       5.25613
_cell_length_c       6.38374
_cell_angle_alpha    90
_cell_angle_beta     122.804
_cell_angle_gamma    90

_symmetry_Int_Tables_number  14
_chemical_formula_structural  CdC2O4
_chemical_formula_sum  Cd2C4O8
_cell_volume  166.7219016704013
_cell_formula_units_Z  2
loop_
  _symmetry_equiv_pos_site_id
 _symmetry_equiv_pos_as_xyz
 1  'x, y, z'
loop_
 _atom_site_type_symbol
 _atom_site_label
 _atom_site_symmetry_multiplicity
 _atom_site_fract_x
 _atom_site_fract_y
 _atom_site_fract_z
 _atom_site_fract_occupancy
 C  C1  1  0.45641  0.87770  0.91812  1
 C  C2  1  0.54359  0.12230  0.08188  1
 C  C3  1  0.45641  0.62230  0.41812  1
 C  C4  1  0.54359  0.37770  0.58188  1
 Cd  Cd1  1  0.00000  0.00000  0.00000  1
 Cd  Cd2  1  -0.00000  0.50000  0.50000  1
 O  O1  1  0.37358  0.26721  0.61076  1
 O  O2  1  0.21434  0.69674  0.32292  1
 O  O3  1  0.78566  0.30326  0.67708  1
 O  O4  1  0.21434  0.80326  0.82292  1
 O  O5  1  0.62642  0.73279  0.38924  1
 O  O6  1  0.62642  0.76721  0.88924  1
 O  O7  1  0.78566  0.19674  0.17708  1
 O  O8  1  0.37358  0.23279  0.11076  1
