CIF file written using JARVIS-Tools package.
data_SnCl
_symmetry_space_group_name_H-M  'P6_3mc'
_cell_length_a       3.47368
_cell_length_b       3.47368
_cell_length_c       10.1497
_cell_angle_alpha    90
_cell_angle_beta     90
_cell_angle_gamma    120

_symmetry_Int_Tables_number  186
_chemical_formula_structural  SnCl
_chemical_formula_sum  Sn2Cl2
_cell_volume  106.06249040445539
_cell_formula_units_Z  2
loop_
  _symmetry_equiv_pos_site_id
 _symmetry_equiv_pos_as_xyz
 1  'x, y, z'
loop_
 _atom_site_type_symbol
 _atom_site_label
 _atom_site_symmetry_multiplicity
 _atom_site_fract_x
 _atom_site_fract_y
 _atom_site_fract_z
 _atom_site_fract_occupancy
 Cl  Cl1  1  0.00000  0.00000  0.06151  1
 Cl  Cl2  1  0.33333  0.66667  0.56151  1
 Sn  Sn1  1  0.00000  0.00000  0.31349  1
 Sn  Sn2  1  0.33333  0.66667  0.81349  1
