CIF file written using JARVIS-Tools package.
data_CS14
_symmetry_space_group_name_H-M  'R-3m'
_cell_length_a       7.28819
_cell_length_b       7.28819
_cell_length_c       7.28819
_cell_angle_alpha    94.7424
_cell_angle_beta     94.7423
_cell_angle_gamma    94.7424

_symmetry_Int_Tables_number  166
_chemical_formula_structural  CS14
_chemical_formula_sum  CS4
_cell_volume  382.9213143111522
_cell_formula_units_Z  1
loop_
  _symmetry_equiv_pos_site_id
 _symmetry_equiv_pos_as_xyz
 1  'x, y, z'
loop_
 _atom_site_type_symbol
 _atom_site_label
 _atom_site_symmetry_multiplicity
 _atom_site_fract_x
 _atom_site_fract_y
 _atom_site_fract_z
 _atom_site_fract_occupancy
 C  C1  1  0.50000  0.50000  0.50000  1
 S  S1  1  0.22967  0.22967  0.84136  1
 S  S2  1  0.84136  0.22967  0.22967  1
 S  S3  1  0.15864  0.77033  0.77033  1
 S  S4  1  0.77033  0.15864  0.77033  1
 S  S5  1  0.77033  0.77033  0.15864  1
 S  S6  1  0.30933  0.69067  0.00000  1
 S  S7  1  -0.00000  0.30933  0.69067  1
 S  S8  1  0.69067  0.00000  0.30933  1
 S  S9  1  0.69067  0.30933  -0.00000  1
 S  S10  1  0.00000  0.69067  0.30933  1
 S  S11  1  0.30933  -0.00000  0.69067  1
 S  S12  1  0.36529  0.36529  0.36529  1
 S  S13  1  0.63471  0.63471  0.63471  1
 S  S14  1  0.22967  0.84136  0.22967  1
