CIF file written using JARVIS-Tools package.
data_Ba3Y2Cu2PtO10
_symmetry_space_group_name_H-M  'C2/m'
_cell_length_a       5.85528
_cell_length_b       6.94275
_cell_length_c       7.46054
_cell_angle_alpha    104.304
_cell_angle_beta     90
_cell_angle_gamma    114.941

_symmetry_Int_Tables_number  12
_chemical_formula_structural  Ba3Y2Cu2PtO10
_chemical_formula_sum  Ba3Y2Cu2PtO0
_cell_volume  264.59551593238626
_cell_formula_units_Z  1
loop_
  _symmetry_equiv_pos_site_id
 _symmetry_equiv_pos_as_xyz
 1  'x, y, z'
loop_
 _atom_site_type_symbol
 _atom_site_label
 _atom_site_symmetry_multiplicity
 _atom_site_fract_x
 _atom_site_fract_y
 _atom_site_fract_z
 _atom_site_fract_occupancy
 Ba  Ba1  1  0.00000  0.00000  0.00000  1
 Ba  Ba2  1  0.84719  0.69437  0.46071  1
 Ba  Ba3  1  0.15281  0.30563  0.53929  1
 Cu  Cu1  1  0.41059  0.82117  0.80026  1
 Cu  Cu2  1  0.58941  0.17883  0.19974  1
 O  O1  1  0.33316  0.66631  0.44983  1
 O  O2  1  0.54523  0.63244  0.87301  1
 O  O3  1  0.91279  0.36756  0.12699  1
 O  O4  1  0.45477  0.36756  0.12699  1
 O  O5  1  0.08721  0.63244  0.87301  1
 O  O6  1  0.29721  0.03677  0.71872  1
 O  O7  1  0.66684  0.33369  0.55017  1
 O  O8  1  0.73956  0.03677  0.71872  1
 O  O9  1  0.70279  0.96323  0.28128  1
 O  O10  1  0.26044  0.96323  0.28128  1
 Pt  Pt1  1  0.50000  -0.00000  0.50000  1
 Y  Y1  1  0.68874  0.37747  0.87376  1
 Y  Y2  1  0.31126  0.62253  0.12624  1
