CIF file written using JARVIS-Tools package.
data_KTiPCO7
_symmetry_space_group_name_H-M  'P2_1'
_cell_length_a       5.23543
_cell_length_b       6.35896
_cell_length_c       9.3067
_cell_angle_alpha    90
_cell_angle_beta     81.5187
_cell_angle_gamma    90

_symmetry_Int_Tables_number  4
_chemical_formula_structural  KTiPCO7
_chemical_formula_sum  K2Ti2P2C2O4
_cell_volume  306.44918323341244
_cell_formula_units_Z  2
loop_
  _symmetry_equiv_pos_site_id
 _symmetry_equiv_pos_as_xyz
 1  'x, y, z'
loop_
 _atom_site_type_symbol
 _atom_site_label
 _atom_site_symmetry_multiplicity
 _atom_site_fract_x
 _atom_site_fract_y
 _atom_site_fract_z
 _atom_site_fract_occupancy
 C  C1  1  0.47390  0.23913  0.08443  1
 C  C2  1  0.52610  0.73913  0.91557  1
 K  K1  1  0.90702  0.63966  0.15368  1
 K  K2  1  0.09298  0.13966  0.84632  1
 O  O1  1  0.42974  0.73231  0.04496  1
 O  O2  1  0.21693  0.23814  0.13023  1
 O  O3  1  0.78307  0.73814  0.86977  1
 O  O4  1  0.26492  0.92783  0.34373  1
 O  O5  1  0.26135  0.54125  0.34537  1
 O  O6  1  0.60091  0.24663  0.19676  1
 O  O7  1  0.56524  0.73321  0.48818  1
 O  O8  1  0.43476  0.23321  0.51182  1
 O  O9  1  0.73865  0.04125  0.65463  1
 O  O10  1  0.91116  0.23830  0.42490  1
 O  O11  1  0.73508  0.42783  0.65627  1
 O  O12  1  0.39909  0.74663  0.80324  1
 O  O13  1  0.08884  0.73830  0.57510  1
 O  O14  1  0.57026  0.23231  -0.04496  1
 P  P1  1  0.70389  0.23441  0.56086  1
 P  P2  1  0.29611  0.73441  0.43914  1
 Ti  Ti1  1  0.73573  0.73127  0.66194  1
 Ti  Ti2  1  0.26427  0.23127  0.33806  1
