CIF file written using JARVIS-Tools package.
data_Mn3Si2Te6
_symmetry_space_group_name_H-M  'P-31c'
_cell_length_a       7.01773
_cell_length_b       7.01773
_cell_length_c       11.6502
_cell_angle_alpha    90
_cell_angle_beta     90
_cell_angle_gamma    120

_symmetry_Int_Tables_number  163
_chemical_formula_structural  Mn3Si2Te6
_chemical_formula_sum  Mn6Si4Te2
_cell_volume  496.8848623953507
_cell_formula_units_Z  2
loop_
  _symmetry_equiv_pos_site_id
 _symmetry_equiv_pos_as_xyz
 1  'x, y, z'
loop_
 _atom_site_type_symbol
 _atom_site_label
 _atom_site_symmetry_multiplicity
 _atom_site_fract_x
 _atom_site_fract_y
 _atom_site_fract_z
 _atom_site_fract_occupancy
 Mn  Mn1  1  0.33333  0.66667  0.50504  1
 Mn  Mn2  1  0.33333  0.66667  0.25000  1
 Mn  Mn3  1  0.66667  0.33333  0.00504  1
 Mn  Mn4  1  0.33333  0.66667  0.99496  1
 Mn  Mn5  1  0.66667  0.33333  0.75000  1
 Mn  Mn6  1  0.66667  0.33333  0.49496  1
 Si  Si1  1  0.00000  0.00000  0.14762  1
 Si  Si2  1  0.00000  0.00000  0.35238  1
 Si  Si3  1  0.00000  0.00000  0.64762  1
 Si  Si4  1  0.00000  0.00000  0.85238  1
 Te  Te1  1  0.63808  0.01393  0.61849  1
 Te  Te2  1  0.36192  0.98607  0.38151  1
 Te  Te3  1  0.01393  0.63808  0.11849  1
 Te  Te4  1  0.37585  0.36192  0.61849  1
 Te  Te5  1  0.37585  0.01393  0.88151  1
 Te  Te6  1  0.98607  0.36192  0.88151  1
 Te  Te7  1  0.63808  0.62415  0.88151  1
 Te  Te8  1  0.01393  0.37585  0.38151  1
 Te  Te9  1  0.62415  0.63808  0.38151  1
 Te  Te10  1  0.98607  0.62415  0.61849  1
 Te  Te11  1  0.36192  0.37585  0.11849  1
 Te  Te12  1  0.62415  0.98607  0.11849  1
