CIF file written using JARVIS-Tools package.
data_CaBiO3
_symmetry_space_group_name_H-M  'Pnma'
_cell_length_a       5.80556
_cell_length_b       6.0735
_cell_length_c       8.40302
_cell_angle_alpha    90
_cell_angle_beta     90
_cell_angle_gamma    90

_symmetry_Int_Tables_number  62
_chemical_formula_structural  CaBiO3
_chemical_formula_sum  Ca4Bi4O2
_cell_volume  296.2911592261055
_cell_formula_units_Z  4
loop_
  _symmetry_equiv_pos_site_id
 _symmetry_equiv_pos_as_xyz
 1  'x, y, z'
loop_
 _atom_site_type_symbol
 _atom_site_label
 _atom_site_symmetry_multiplicity
 _atom_site_fract_x
 _atom_site_fract_y
 _atom_site_fract_z
 _atom_site_fract_occupancy
 Bi  Bi1  1  0.50000  0.00000  0.00000  1
 Bi  Bi2  1  0.00000  0.50000  0.00000  1
 Bi  Bi3  1  0.00000  0.50000  0.50000  1
 Bi  Bi4  1  0.50000  0.00000  0.50000  1
 Ca  Ca1  1  0.98215  0.05893  0.25000  1
 Ca  Ca2  1  0.48215  0.44107  0.75000  1
 Ca  Ca3  1  0.51785  0.55893  0.25000  1
 Ca  Ca4  1  0.01785  0.94107  0.75000  1
 O  O1  1  0.86310  0.56864  0.75000  1
 O  O2  1  0.30973  0.69467  0.57216  1
 O  O3  1  0.63690  0.06864  0.75000  1
 O  O4  1  0.13690  0.43136  0.25000  1
 O  O5  1  0.36310  0.93136  0.25000  1
 O  O6  1  0.69027  0.30533  0.07216  1
 O  O7  1  0.80973  0.80533  0.07216  1
 O  O8  1  0.30973  0.69467  0.92784  1
 O  O9  1  0.69027  0.30533  0.42784  1
 O  O10  1  0.19027  0.19467  0.92784  1
 O  O11  1  0.19027  0.19467  0.57216  1
 O  O12  1  0.80973  0.80533  0.42784  1
