CIF file written using JARVIS-Tools package.
data_YBi3F15
_symmetry_space_group_name_H-M  'P2_1/m'
_cell_length_a       11.0387
_cell_length_b       6.05573
_cell_length_c       11.3197
_cell_angle_alpha    90
_cell_angle_beta     90
_cell_angle_gamma    127.173

_symmetry_Int_Tables_number  11
_chemical_formula_structural  YBi3F15
_chemical_formula_sum  Y2Bi6F30
_cell_volume  602.9491328349848
_cell_formula_units_Z  2
loop_
  _symmetry_equiv_pos_site_id
 _symmetry_equiv_pos_as_xyz
 1  'x, y, z'
loop_
 _atom_site_type_symbol
 _atom_site_label
 _atom_site_symmetry_multiplicity
 _atom_site_fract_x
 _atom_site_fract_y
 _atom_site_fract_z
 _atom_site_fract_occupancy
 Bi  Bi1  1  0.16667  -0.00000  0.50000  1
 Bi  Bi2  1  0.47822  0.88755  0.44721  1
 Bi  Bi3  1  0.85511  0.11245  0.55279  1
 Bi  Bi4  1  0.16667  -0.00000  0.00000  1
 Bi  Bi5  1  0.47822  0.88755  0.05279  1
 Bi  Bi6  1  0.85511  0.11245  0.94721  1
 F  F1  1  0.67638  0.15980  0.91682  1
 F  F2  1  0.93901  0.82499  0.45718  1
 F  F3  1  0.65696  0.84020  0.08318  1
 F  F4  1  0.22631  0.83358  0.37410  1
 F  F5  1  0.67638  0.15980  0.58318  1
 F  F6  1  0.39432  0.17501  0.54282  1
 F  F7  1  0.10702  0.16642  0.62590  1
 F  F8  1  0.26876  0.06348  0.75000  1
 F  F9  1  0.45251  0.05890  0.75000  1
 F  F10  1  0.07894  0.63883  0.90628  1
 F  F11  1  0.88082  0.94110  0.25000  1
 F  F12  1  0.45402  0.79389  0.25000  1
 F  F13  1  0.06457  0.93652  0.25000  1
 F  F14  1  0.87931  0.20611  0.75000  1
 F  F15  1  0.65696  0.84020  0.41682  1
 F  F16  1  0.93901  0.82499  0.04282  1
 F  F17  1  0.42156  0.61901  0.61671  1
 F  F18  1  0.22631  0.83358  0.12590  1
 F  F19  1  0.42156  0.61901  0.88329  1
 F  F20  1  0.25440  0.36117  0.09372  1
 F  F21  1  0.10702  0.16642  0.87410  1
 F  F22  1  0.69930  0.68956  0.62970  1
 F  F23  1  0.39432  0.17501  0.95718  1
 F  F24  1  0.07894  0.63883  0.59372  1
 F  F25  1  0.91177  0.38099  0.38329  1
 F  F26  1  0.63404  0.31044  0.37030  1
 F  F27  1  0.25440  0.36117  0.40628  1
 F  F28  1  0.91177  0.38099  0.11671  1
 F  F29  1  0.63404  0.31044  0.12970  1
 F  F30  1  0.69930  0.68956  0.87030  1
 Y  Y1  1  0.50254  0.47654  0.75000  1
 Y  Y2  1  0.83079  0.52346  0.25000  1
