CIF file written using JARVIS-Tools package.
data_UVN2
_symmetry_space_group_name_H-M  'Pnma'
_cell_length_a       5.47439
_cell_length_b       3.16297
_cell_length_c       10.6798
_cell_angle_alpha    90
_cell_angle_beta     90.005
_cell_angle_gamma    90

_symmetry_Int_Tables_number  62
_chemical_formula_structural  UVN2
_chemical_formula_sum  U4V4N8
_cell_volume  184.92324204980653
_cell_formula_units_Z  4
loop_
  _symmetry_equiv_pos_site_id
 _symmetry_equiv_pos_as_xyz
 1  'x, y, z'
loop_
 _atom_site_type_symbol
 _atom_site_label
 _atom_site_symmetry_multiplicity
 _atom_site_fract_x
 _atom_site_fract_y
 _atom_site_fract_z
 _atom_site_fract_occupancy
 N  N1  1  0.16676  0.50000  0.75403  1
 N  N2  1  0.33324  0.00000  0.25403  1
 N  N3  1  0.24259  0.50000  0.49325  1
 N  N4  1  0.83324  0.00000  0.24597  1
 N  N5  1  0.66676  0.50000  0.74597  1
 N  N6  1  0.75741  0.00000  0.50675  1
 N  N7  1  0.25741  0.00000  0.99325  1
 N  N8  1  0.74259  0.50000  0.00675  1
 U  U1  1  0.42240  0.00000  0.64393  1
 U  U2  1  0.92240  0.00000  0.85607  1
 U  U3  1  0.57760  0.50000  0.35607  1
 U  U4  1  0.07760  0.50000  0.14393  1
 V  V1  1  0.42637  0.50000  0.90322  1
 V  V2  1  0.07364  0.00000  0.40322  1
 V  V3  1  0.92636  0.50000  0.59678  1
 V  V4  1  0.57363  0.00000  0.09678  1
