CIF file written using JARVIS-Tools package.
data_ZrInCu2
_symmetry_space_group_name_H-M  'Fm-3m'
_cell_length_a       4.55254
_cell_length_b       4.55246
_cell_length_c       4.55266
_cell_angle_alpha    59.9975
_cell_angle_beta     59.9971
_cell_angle_gamma    60.0015

_symmetry_Int_Tables_number  225
_chemical_formula_structural  ZrInCu2
_chemical_formula_sum  ZrInCu2
_cell_volume  66.71703039967201
_cell_formula_units_Z  1
loop_
  _symmetry_equiv_pos_site_id
 _symmetry_equiv_pos_as_xyz
 1  'x, y, z'
loop_
 _atom_site_type_symbol
 _atom_site_label
 _atom_site_symmetry_multiplicity
 _atom_site_fract_x
 _atom_site_fract_y
 _atom_site_fract_z
 _atom_site_fract_occupancy
 Cu  Cu1  1  0.75001  0.75000  0.74999  1
 Cu  Cu2  1  0.24996  0.25003  0.24999  1
 In  In1  1  0.00002  -0.00000  0.00001  1
 Zr  Zr1  1  0.50001  0.49998  0.50001  1
