CIF file written using JARVIS-Tools package.
data_Na3AlSe3
_symmetry_space_group_name_H-M  'P2_1/c'
_cell_length_a       7.1841
_cell_length_b       7.47408
_cell_length_c       13.203
_cell_angle_alpha    90.6002
_cell_angle_beta     90
_cell_angle_gamma    90

_symmetry_Int_Tables_number  14
_chemical_formula_structural  Na3AlSe3
_chemical_formula_sum  Na2Al4Se2
_cell_volume  708.8923335518379
_cell_formula_units_Z  4
loop_
  _symmetry_equiv_pos_site_id
 _symmetry_equiv_pos_as_xyz
 1  'x, y, z'
loop_
 _atom_site_type_symbol
 _atom_site_label
 _atom_site_symmetry_multiplicity
 _atom_site_fract_x
 _atom_site_fract_y
 _atom_site_fract_z
 _atom_site_fract_occupancy
 Al  Al1  1  0.13993  0.41676  0.08142  1
 Al  Al2  1  0.86007  0.58324  0.91858  1
 Al  Al3  1  0.36007  0.91676  0.58142  1
 Al  Al4  1  0.63993  0.08324  0.41858  1
 Na  Na1  1  0.99490  0.71036  0.39996  1
 Na  Na2  1  0.49490  0.78964  0.10004  1
 Na  Na3  1  0.00510  0.28964  0.60004  1
 Na  Na4  1  0.50510  0.21036  0.89996  1
 Na  Na5  1  0.47135  0.72405  0.78599  1
 Na  Na6  1  0.49477  0.66050  0.38903  1
 Na  Na7  1  0.00523  0.16050  0.88903  1
 Na  Na8  1  0.50523  0.33950  0.61097  1
 Na  Na9  1  0.02865  0.22405  0.28599  1
 Na  Na10  1  0.52865  0.27595  0.21401  1
 Na  Na11  1  0.97135  0.77595  0.71401  1
 Na  Na12  1  0.99477  0.83950  0.11097  1
 Se  Se1  1  0.24411  0.62130  0.57356  1
 Se  Se2  1  0.74411  0.87870  0.92644  1
 Se  Se3  1  0.23854  0.57297  0.22851  1
 Se  Se4  1  0.73854  0.92703  0.27149  1
 Se  Se5  1  0.76146  0.42703  0.77149  1
 Se  Se6  1  0.29776  0.07951  0.42804  1
 Se  Se7  1  0.79776  0.42049  0.07196  1
 Se  Se8  1  0.20224  0.57951  0.92804  1
 Se  Se9  1  0.70224  0.92049  0.57196  1
 Se  Se10  1  0.25589  0.12130  0.07356  1
 Se  Se11  1  0.26146  0.07297  0.72851  1
 Se  Se12  1  0.75589  0.37870  0.42644  1
