CIF file written using JARVIS-Tools package.
data_LiAlVO4
_symmetry_space_group_name_H-M  'P6_222'
_cell_length_a       5.44341
_cell_length_b       5.44341
_cell_length_c       12.0903
_cell_angle_alpha    90
_cell_angle_beta     90
_cell_angle_gamma    120

_symmetry_Int_Tables_number  180
_chemical_formula_structural  LiAlVO4
_chemical_formula_sum  Li3Al3V3O2
_cell_volume  310.24849944806203
_cell_formula_units_Z  3
loop_
  _symmetry_equiv_pos_site_id
 _symmetry_equiv_pos_as_xyz
 1  'x, y, z'
loop_
 _atom_site_type_symbol
 _atom_site_label
 _atom_site_symmetry_multiplicity
 _atom_site_fract_x
 _atom_site_fract_y
 _atom_site_fract_z
 _atom_site_fract_occupancy
 Al  Al1  1  -0.00000  0.50000  0.66667  1
 Al  Al2  1  0.50000  -0.00000  0.00000  1
 Al  Al3  1  0.50000  0.50000  0.33333  1
 Li  Li1  1  0.00000  0.00000  0.66667  1
 Li  Li2  1  0.00000  0.00000  0.33333  1
 Li  Li3  1  0.00000  0.00000  0.00000  1
 O  O1  1  0.20024  0.38454  0.74285  1
 O  O2  1  0.79976  0.61546  0.74285  1
 O  O3  1  0.20024  0.81570  0.59049  1
 O  O4  1  0.18430  0.79976  0.07618  1
 O  O5  1  0.18430  0.38454  0.25715  1
 O  O6  1  0.61546  0.79976  0.92382  1
 O  O7  1  0.79976  0.18430  0.59049  1
 O  O8  1  0.38454  0.20024  0.92382  1
 O  O9  1  0.61546  0.81570  0.40951  1
 O  O10  1  0.81570  0.20024  0.07618  1
 O  O11  1  0.38454  0.18430  0.40951  1
 O  O12  1  0.81570  0.61546  0.25715  1
 V  V1  1  0.50000  0.50000  0.83333  1
 V  V2  1  0.50000  -0.00000  0.50000  1
 V  V3  1  -0.00000  0.50000  0.16667  1
