CIF file written using JARVIS-Tools package.
data_AlH3O3
_symmetry_space_group_name_H-M  'P2_1/c'
_cell_length_a       4.79
_cell_length_b       5.08839
_cell_length_c       8.70683
_cell_angle_alpha    90
_cell_angle_beta     90
_cell_angle_gamma    75.5487

_symmetry_Int_Tables_number  14
_chemical_formula_structural  AlH3O3
_chemical_formula_sum  Al4H2O2
_cell_volume  205.5007796790038
_cell_formula_units_Z  4
loop_
  _symmetry_equiv_pos_site_id
 _symmetry_equiv_pos_as_xyz
 1  'x, y, z'
loop_
 _atom_site_type_symbol
 _atom_site_label
 _atom_site_symmetry_multiplicity
 _atom_site_fract_x
 _atom_site_fract_y
 _atom_site_fract_z
 _atom_site_fract_occupancy
 Al  Al1  1  0.02902  0.95458  0.66600  1
 Al  Al2  1  0.97098  0.54542  0.16600  1
 Al  Al3  1  0.97098  0.04542  0.33400  1
 Al  Al4  1  0.02902  0.45458  0.83400  1
 H  H1  1  0.61128  0.22847  0.81900  1
 H  H2  1  0.39464  0.22686  0.61658  1
 H  H3  1  0.60536  0.27314  0.11658  1
 H  H4  1  0.78579  0.37526  0.54146  1
 H  H5  1  0.21421  0.12474  0.04146  1
 H  H6  1  0.78579  0.87526  0.95854  1
 H  H7  1  0.61128  0.72847  0.68100  1
 H  H8  1  0.38872  0.27153  0.31900  1
 H  H9  1  0.60536  0.77314  0.38342  1
 H  H10  1  0.39464  0.72686  0.88342  1
 H  H11  1  0.21421  0.62474  0.45854  1
 H  H12  1  0.38872  0.77153  0.18100  1
 O  O1  1  0.26175  0.19795  0.69742  1
 O  O2  1  0.17820  0.82286  0.16936  1
 O  O3  1  0.22624  0.81197  0.48154  1
 O  O4  1  0.22624  0.31197  0.01846  1
 O  O5  1  0.73825  0.30205  0.19742  1
 O  O6  1  0.77376  0.68803  0.98154  1
 O  O7  1  0.17820  0.32286  0.33064  1
 O  O8  1  0.82180  0.17714  0.83064  1
 O  O9  1  0.26175  0.69795  0.80258  1
 O  O10  1  0.82180  0.67714  0.66936  1
 O  O11  1  0.73825  0.80205  0.30258  1
 O  O12  1  0.77376  0.18803  0.51846  1
