CIF file written using JARVIS-Tools package.
data_LiTi3O4
_symmetry_space_group_name_H-M  'Amm2'
_cell_length_a       2.97719
_cell_length_b       5.14785
_cell_length_c       5.14788
_cell_angle_alpha    109.351
_cell_angle_beta     89.9956
_cell_angle_gamma    90.0038

_symmetry_Int_Tables_number  38
_chemical_formula_structural  LiTi3O4
_chemical_formula_sum  LiTi3O4
_cell_volume  74.43989768316527
_cell_formula_units_Z  1
loop_
  _symmetry_equiv_pos_site_id
 _symmetry_equiv_pos_as_xyz
 1  'x, y, z'
loop_
 _atom_site_type_symbol
 _atom_site_label
 _atom_site_symmetry_multiplicity
 _atom_site_fract_x
 _atom_site_fract_y
 _atom_site_fract_z
 _atom_site_fract_occupancy
 Li  Li1  1  0.49987  -0.00350  0.50335  1
 O  O1  1  -0.00014  0.75627  0.23876  1
 O  O2  1  0.49991  0.22750  0.27231  1
 O  O3  1  -0.00013  0.26103  0.74353  1
 O  O4  1  0.49988  0.75298  0.74682  1
 Ti  Ti1  1  0.49984  0.48253  0.01726  1
 Ti  Ti2  1  -0.00009  0.02757  0.00468  1
 Ti  Ti3  1  -0.00010  0.49513  0.47223  1
