CIF file written using JARVIS-Tools package.
data_Li5Cr2Fe5O12
_symmetry_space_group_name_H-M  'C2'
_cell_length_a       5.02732
_cell_length_b       5.02733
_cell_length_c       9.64946
_cell_angle_alpha    84.8287
_cell_angle_beta     95.1713
_cell_angle_gamma    60.1064

_symmetry_Int_Tables_number  5
_chemical_formula_structural  Li5Cr2Fe5O12
_chemical_formula_sum  Li5Cr2Fe5O2
_cell_volume  207.98011695205815
_cell_formula_units_Z  1
loop_
  _symmetry_equiv_pos_site_id
 _symmetry_equiv_pos_as_xyz
 1  'x, y, z'
loop_
 _atom_site_type_symbol
 _atom_site_label
 _atom_site_symmetry_multiplicity
 _atom_site_fract_x
 _atom_site_fract_y
 _atom_site_fract_z
 _atom_site_fract_occupancy
 Cr  Cr1  1  0.24919  0.24919  0.75000  1
 Cr  Cr2  1  0.74977  0.74977  0.25000  1
 Fe  Fe1  1  0.00079  0.51133  0.99020  1
 Fe  Fe2  1  0.07921  0.07921  0.25000  1
 Fe  Fe3  1  0.58020  0.58020  0.75000  1
 Fe  Fe4  1  0.51133  0.00079  0.50980  1
 Fe  Fe5  1  0.41856  0.41856  0.25000  1
 Li  Li1  1  0.16746  0.67679  0.50915  1
 Li  Li2  1  0.84029  0.32423  0.50839  1
 Li  Li3  1  0.67679  0.16746  0.99085  1
 Li  Li4  1  0.32423  0.84029  0.99161  1
 Li  Li5  1  0.92014  0.92014  0.75000  1
 O  O1  1  0.86788  0.61241  0.63385  1
 O  O2  1  0.80480  0.02624  0.37178  1
 O  O3  1  0.95100  0.22545  0.86615  1
 O  O4  1  0.22545  0.95100  0.63385  1
 O  O5  1  0.11271  0.36845  0.36745  1
 O  O6  1  0.36845  0.11271  0.13255  1
 O  O7  1  0.30109  0.53062  0.87008  1
 O  O8  1  0.53062  0.30109  0.62992  1
 O  O9  1  0.45248  0.72890  0.36861  1
 O  O10  1  0.72890  0.45248  0.13139  1
 O  O11  1  0.61241  0.86788  0.86615  1
 O  O12  1  0.02624  0.80480  0.12822  1
