CIF file written using JARVIS-Tools package.
data_CrBr3
_symmetry_space_group_name_H-M  'R-3'
_cell_length_a       6.34702
_cell_length_b       6.34702
_cell_length_c       18.251
_cell_angle_alpha    90
_cell_angle_beta     90
_cell_angle_gamma    120

_symmetry_Int_Tables_number  148
_chemical_formula_structural  CrBr3
_chemical_formula_sum  Cr6Br8
_cell_volume  636.7316814415542
_cell_formula_units_Z  6
loop_
  _symmetry_equiv_pos_site_id
 _symmetry_equiv_pos_as_xyz
 1  'x, y, z'
loop_
 _atom_site_type_symbol
 _atom_site_label
 _atom_site_symmetry_multiplicity
 _atom_site_fract_x
 _atom_site_fract_y
 _atom_site_fract_z
 _atom_site_fract_occupancy
 Br  Br1  1  0.35070  0.99903  0.41188  1
 Br  Br2  1  0.31597  0.33430  0.92145  1
 Br  Br3  1  0.66570  0.98166  0.92145  1
 Br  Br4  1  0.01834  0.68403  0.92145  1
 Br  Br5  1  0.66764  0.68500  0.07855  1
 Br  Br6  1  0.31500  0.98264  0.07855  1
 Br  Br7  1  0.33430  0.01833  0.74522  1
 Br  Br8  1  0.35168  0.35070  0.25478  1
 Br  Br9  1  0.01736  0.33236  0.07855  1
 Br  Br10  1  -0.00097  0.64832  0.25478  1
 Br  Br11  1  0.64833  0.64930  0.41188  1
 Br  Br12  1  0.98167  0.31597  0.74522  1
 Br  Br13  1  0.00097  0.35167  0.41188  1
 Br  Br14  1  0.33236  0.31499  0.58812  1
 Br  Br15  1  0.68501  0.01737  0.58812  1
 Br  Br16  1  0.98263  0.66764  0.58812  1
 Br  Br17  1  0.68403  0.66570  0.74522  1
 Br  Br18  1  0.64930  0.00097  0.25478  1
 Cr  Cr1  1  0.66667  0.33333  0.33360  1
 Cr  Cr2  1  0.66667  0.33333  0.66640  1
 Cr  Cr3  1  0.33333  0.66667  0.00027  1
 Cr  Cr4  1  0.33333  0.66667  0.33307  1
 Cr  Cr5  1  0.00000  0.00000  0.66694  1
 Cr  Cr6  1  0.00000  0.00000  -0.00027  1
