CIF file written using JARVIS-Tools package.
data_V2Bi4O11
_symmetry_space_group_name_H-M  'P1'
_cell_length_a       5.67202
_cell_length_b       6.4103
_cell_length_c       8.02275
_cell_angle_alpha    81.6877
_cell_angle_beta     85.6376
_cell_angle_gamma    70.0404

_symmetry_Int_Tables_number  1
_chemical_formula_structural  V2Bi4O11
_chemical_formula_sum  V2Bi4O
_cell_volume  271.18784299896134
_cell_formula_units_Z  1
loop_
  _symmetry_equiv_pos_site_id
 _symmetry_equiv_pos_as_xyz
 1  'x, y, z'
loop_
 _atom_site_type_symbol
 _atom_site_label
 _atom_site_symmetry_multiplicity
 _atom_site_fract_x
 _atom_site_fract_y
 _atom_site_fract_z
 _atom_site_fract_occupancy
 Bi  Bi1  1  0.10981  0.99358  0.67628  1
 Bi  Bi2  1  0.67287  0.73690  0.99351  1
 Bi  Bi3  1  0.45372  0.35495  0.82322  1
 Bi  Bi4  1  0.58701  0.23144  0.32149  1
 O  O1  1  0.75054  0.40158  0.56410  1
 O  O2  1  0.36935  -0.00468  0.29997  1
 O  O3  1  0.79297  0.01760  0.84509  1
 O  O4  1  0.44645  0.71925  0.77938  1
 O  O5  1  0.26924  0.07568  0.95306  1
 O  O6  1  0.90584  0.97064  0.19219  1
 O  O7  1  0.96325  0.37260  0.19259  1
 O  O8  1  0.88485  0.83740  0.52875  1
 O  O9  1  0.97695  0.53130  0.81900  1
 O  O10  1  0.23660  0.39334  0.54078  1
 O  O11  1  0.48532  0.43151  0.07902  1
 V  V1  1  0.12398  0.10599  0.15646  1
 V  V2  1  0.93784  0.55492  0.59821  1
