CIF file written using JARVIS-Tools package.
data_MgSb2O4
_symmetry_space_group_name_H-M  'Fd-3m'
_cell_length_a       6.67821
_cell_length_b       6.67821
_cell_length_c       6.67816
_cell_angle_alpha    120
_cell_angle_beta     120
_cell_angle_gamma    90

_symmetry_Int_Tables_number  227
_chemical_formula_structural  MgSb2O4
_chemical_formula_sum  Mg2Sb4O8
_cell_volume  210.60027126453554
_cell_formula_units_Z  2
loop_
  _symmetry_equiv_pos_site_id
 _symmetry_equiv_pos_as_xyz
 1  'x, y, z'
loop_
 _atom_site_type_symbol
 _atom_site_label
 _atom_site_symmetry_multiplicity
 _atom_site_fract_x
 _atom_site_fract_y
 _atom_site_fract_z
 _atom_site_fract_occupancy
 Mg  Mg1  1  0.37500  0.62500  0.75000  1
 Mg  Mg2  1  0.62500  0.37500  0.25000  1
 O  O1  1  0.75043  0.75128  0.50085  1
 O  O2  1  0.75043  0.24957  0.99915  1
 O  O3  1  0.24872  0.24957  0.99915  1
 O  O4  1  0.24957  0.24872  0.49915  1
 O  O5  1  0.24957  0.75043  0.49915  1
 O  O6  1  0.24957  0.75043  0.00085  1
 O  O7  1  0.75043  0.24957  0.50085  1
 O  O8  1  0.75128  0.75043  0.00085  1
 Sb  Sb1  1  -0.00000  0.00000  0.50000  1
 Sb  Sb2  1  0.00000  0.50000  0.00000  1
 Sb  Sb3  1  0.50000  0.00000  0.50000  1
 Sb  Sb4  1  0.00000  0.00000  0.00000  1
