CIF file written using JARVIS-Tools package.
data_TiNiP2O8
_symmetry_space_group_name_H-M  'P2_1/m'
_cell_length_a       4.80826
_cell_length_b       5.79245
_cell_length_c       9.8433
_cell_angle_alpha    90
_cell_angle_beta     91.2006
_cell_angle_gamma    90

_symmetry_Int_Tables_number  11
_chemical_formula_structural  TiNiP2O8
_chemical_formula_sum  Ti2Ni2P4O6
_cell_volume  274.0918655962012
_cell_formula_units_Z  2
loop_
  _symmetry_equiv_pos_site_id
 _symmetry_equiv_pos_as_xyz
 1  'x, y, z'
loop_
 _atom_site_type_symbol
 _atom_site_label
 _atom_site_symmetry_multiplicity
 _atom_site_fract_x
 _atom_site_fract_y
 _atom_site_fract_z
 _atom_site_fract_occupancy
 Ni  Ni1  1  0.05534  0.75000  0.27276  1
 Ni  Ni2  1  0.94466  0.25000  0.72724  1
 O  O1  1  0.72327  0.95361  0.66542  1
 O  O2  1  0.34218  0.25000  0.05835  1
 O  O3  1  0.27212  0.75000  0.10712  1
 O  O4  1  0.73086  0.96046  0.16811  1
 O  O5  1  0.72788  0.25000  0.89288  1
 O  O6  1  0.27673  0.04639  0.33458  1
 O  O7  1  0.27673  0.45361  0.33458  1
 O  O8  1  0.73086  0.53954  0.16811  1
 O  O9  1  0.82710  0.75000  0.43772  1
 O  O10  1  0.17290  0.25000  0.56228  1
 O  O11  1  0.65782  0.75000  0.94165  1
 O  O12  1  0.81501  0.25000  0.37196  1
 O  O13  1  0.72327  0.54639  0.66542  1
 O  O14  1  0.26914  0.46046  0.83189  1
 O  O15  1  0.26914  0.03954  0.83189  1
 O  O16  1  0.18499  0.75000  0.62804  1
 P  P1  1  0.41628  0.25000  0.90597  1
 P  P2  1  0.87347  0.75000  0.58850  1
 P  P3  1  0.12653  0.25000  0.41150  1
 P  P4  1  0.58372  0.75000  0.09403  1
 Ti  Ti1  1  0.45308  0.75000  0.77094  1
 Ti  Ti2  1  0.54692  0.25000  0.22906  1
