CIF file written using JARVIS-Tools package.
data_CoNi2S4
_symmetry_space_group_name_H-M  'Fdd2'
_cell_length_a       6.07686
_cell_length_b       6.07788
_cell_length_c       6.80662
_cell_angle_alpha    106.215
_cell_angle_beta     106.209
_cell_angle_gamma    111.998

_symmetry_Int_Tables_number  43
_chemical_formula_structural  CoNi2S4
_chemical_formula_sum  Co2Ni4S8
_cell_volume  201.96718177102647
_cell_formula_units_Z  2
loop_
  _symmetry_equiv_pos_site_id
 _symmetry_equiv_pos_as_xyz
 1  'x, y, z'
loop_
 _atom_site_type_symbol
 _atom_site_label
 _atom_site_symmetry_multiplicity
 _atom_site_fract_x
 _atom_site_fract_y
 _atom_site_fract_z
 _atom_site_fract_occupancy
 Co  Co1  1  0.76989  0.27140  0.49880  1
 Co  Co2  1  0.51982  0.52135  0.99878  1
 Ni  Ni1  1  0.47929  0.52865  0.51529  1
 Ni  Ni2  1  0.01066  0.96425  0.48227  1
 Ni  Ni3  1  0.21275  0.76220  0.98229  1
 Ni  Ni4  1  0.77723  0.23074  0.01529  1
 S  S1  1  0.51655  0.79284  0.84453  1
 S  S2  1  0.04138  0.26800  0.34452  1
 S  S3  1  0.03893  0.28992  0.82265  1
 S  S4  1  0.53839  0.79039  0.32267  1
 S  S5  1  0.46504  0.21602  0.67491  1
 S  S6  1  0.94558  0.67224  0.15304  1
 S  S7  1  0.92081  0.69711  0.65304  1
 S  S8  1  0.46456  0.21650  0.17488  1
