CIF file written using JARVIS-Tools package.
data_Ga3NO3
_symmetry_space_group_name_H-M  'P-6'
_cell_length_a       8.22939
_cell_length_b       8.22939
_cell_length_c       6.36723
_cell_angle_alpha    90
_cell_angle_beta     90
_cell_angle_gamma    120

_symmetry_Int_Tables_number  174
_chemical_formula_structural  Ga3NO3
_chemical_formula_sum  Ga2N4O2
_cell_volume  373.4360675954643
_cell_formula_units_Z  4
loop_
  _symmetry_equiv_pos_site_id
 _symmetry_equiv_pos_as_xyz
 1  'x, y, z'
loop_
 _atom_site_type_symbol
 _atom_site_label
 _atom_site_symmetry_multiplicity
 _atom_site_fract_x
 _atom_site_fract_y
 _atom_site_fract_z
 _atom_site_fract_occupancy
 Ga  Ga1  1  0.40395  0.17069  0.50000  1
 Ga  Ga2  1  0.41217  0.17388  0.00000  1
 Ga  Ga3  1  0.82931  0.23326  0.50000  1
 Ga  Ga4  1  0.82612  0.23828  0.00000  1
 Ga  Ga5  1  0.76172  0.58783  0.00000  1
 Ga  Ga6  1  0.76674  0.59605  0.50000  1
 Ga  Ga7  1  0.23990  0.40412  0.25632  1
 Ga  Ga8  1  0.23990  0.40412  0.74368  1
 Ga  Ga9  1  0.16422  0.76010  0.25632  1
 Ga  Ga10  1  0.16422  0.76010  0.74368  1
 Ga  Ga11  1  0.59588  0.83578  0.74368  1
 Ga  Ga12  1  0.59588  0.83578  0.25632  1
 N  N1  1  0.66667  0.33333  0.00000  1
 N  N2  1  0.31280  0.33737  0.50000  1
 N  N3  1  0.02457  0.68720  0.50000  1
 N  N4  1  0.66263  0.97543  0.50000  1
 O  O1  1  0.33224  0.02481  0.24720  1
 O  O2  1  0.33224  0.02481  0.75280  1
 O  O3  1  0.66667  0.33333  0.50000  1
 O  O4  1  0.97519  0.30743  0.24720  1
 O  O5  1  0.97519  0.30743  0.75280  1
 O  O6  1  0.69257  0.66776  0.75280  1
 O  O7  1  0.69257  0.66776  0.24720  1
 O  O8  1  0.28882  0.31982  0.00000  1
 O  O9  1  0.03100  0.71118  0.00000  1
 O  O10  1  0.33333  0.66667  0.77022  1
 O  O11  1  0.33333  0.66667  0.22978  1
 O  O12  1  0.68018  0.96900  0.00000  1
