CIF file written using JARVIS-Tools package.
data_Ge3Cl8
_symmetry_space_group_name_H-M  'F-43c'
_cell_length_a       12.2424
_cell_length_b       12.2424
_cell_length_c       12.2424
_cell_angle_alpha    60
_cell_angle_beta     60
_cell_angle_gamma    60

_symmetry_Int_Tables_number  219
_chemical_formula_structural  Ge3Cl8
_chemical_formula_sum  Ge2Cl32
_cell_volume  1297.4263636800317
_cell_formula_units_Z  4
loop_
  _symmetry_equiv_pos_site_id
 _symmetry_equiv_pos_as_xyz
 1  'x, y, z'
loop_
 _atom_site_type_symbol
 _atom_site_label
 _atom_site_symmetry_multiplicity
 _atom_site_fract_x
 _atom_site_fract_y
 _atom_site_fract_z
 _atom_site_fract_occupancy
 Cl  Cl1  1  0.57143  0.16981  0.29302  1
 Cl  Cl2  1  0.96574  0.57143  0.29302  1
 Cl  Cl3  1  0.57143  0.29302  0.96574  1
 Cl  Cl4  1  0.29302  0.57143  0.16981  1
 Cl  Cl5  1  0.29302  0.16981  0.96574  1
 Cl  Cl6  1  0.16981  0.57143  0.96574  1
 Cl  Cl7  1  0.07143  0.79302  0.66981  1
 Cl  Cl8  1  0.66981  0.46574  0.07143  1
 Cl  Cl9  1  0.46574  0.66981  0.79302  1
 Cl  Cl10  1  0.42876  0.42876  0.71372  1
 Cl  Cl11  1  0.79302  0.07143  0.46574  1
 Cl  Cl12  1  0.46574  0.07143  0.66981  1
 Cl  Cl13  1  0.92876  0.92876  0.21372  1
 Cl  Cl14  1  0.42876  0.71372  0.42876  1
 Cl  Cl15  1  0.42876  0.42876  0.42876  1
 Cl  Cl16  1  0.71372  0.42876  0.42876  1
 Cl  Cl17  1  0.21372  0.92876  0.92876  1
 Cl  Cl18  1  0.92876  0.21372  0.92876  1
 Cl  Cl19  1  0.92876  0.92876  0.92876  1
 Cl  Cl20  1  0.79302  0.66981  0.07143  1
 Cl  Cl21  1  0.29302  0.96574  0.57143  1
 Cl  Cl22  1  0.57143  0.96574  0.16981  1
 Cl  Cl23  1  0.96574  0.29302  0.16981  1
 Cl  Cl24  1  0.96574  0.16981  0.57143  1
 Cl  Cl25  1  0.16981  0.96574  0.29302  1
 Cl  Cl26  1  0.46574  0.79302  0.07143  1
 Cl  Cl27  1  0.07143  0.46574  0.79302  1
 Cl  Cl28  1  0.66981  0.79302  0.46574  1
 Cl  Cl29  1  0.07143  0.66981  0.46574  1
 Cl  Cl30  1  0.66981  0.07143  0.79302  1
 Cl  Cl31  1  0.16981  0.29302  0.57143  1
 Cl  Cl32  1  0.79302  0.46574  0.66981  1
 Ge  Ge1  1  0.66781  0.66781  0.66781  1
 Ge  Ge2  1  0.99656  0.66781  0.66781  1
 Ge  Ge3  1  0.66781  0.66781  0.99656  1
 Ge  Ge4  1  0.16781  0.16781  0.16781  1
 Ge  Ge5  1  0.16781  0.49656  0.16781  1
 Ge  Ge6  1  0.16781  0.16781  0.49656  1
 Ge  Ge7  1  0.66781  0.99656  0.66781  1
 Ge  Ge8  1  0.25000  0.25000  0.25000  1
 Ge  Ge9  1  0.75000  0.75000  0.75000  1
 Ge  Ge10  1  0.50000  0.50000  0.50000  1
 Ge  Ge11  1  0.49656  0.16781  0.16781  1
 Ge  Ge12  1  0.00000  0.00000  0.00000  1
