CIF file written using JARVIS-Tools package.
data_Sc7NCl12
_symmetry_space_group_name_H-M  'R-3'
_cell_length_a       7.99467
_cell_length_b       7.99466
_cell_length_c       7.99466
_cell_angle_alpha    107.492
_cell_angle_beta     107.492
_cell_angle_gamma    107.492

_symmetry_Int_Tables_number  148
_chemical_formula_structural  Sc7NCl12
_chemical_formula_sum  Sc7NCl2
_cell_volume  419.70352464713955
_cell_formula_units_Z  1
loop_
  _symmetry_equiv_pos_site_id
 _symmetry_equiv_pos_as_xyz
 1  'x, y, z'
loop_
 _atom_site_type_symbol
 _atom_site_label
 _atom_site_symmetry_multiplicity
 _atom_site_fract_x
 _atom_site_fract_y
 _atom_site_fract_z
 _atom_site_fract_occupancy
 Cl  Cl1  1  0.46371  0.38429  0.15214  1
 Cl  Cl2  1  0.61571  0.84786  0.53629  1
 Cl  Cl3  1  0.84786  0.53629  0.61571  1
 Cl  Cl4  1  0.53629  0.61571  0.84786  1
 Cl  Cl5  1  0.38429  0.15214  0.46371  1
 Cl  Cl6  1  0.15214  0.46371  0.38429  1
 Cl  Cl7  1  0.07733  0.22718  0.68711  1
 Cl  Cl8  1  0.22718  0.68711  0.07733  1
 Cl  Cl9  1  0.68711  0.07733  0.22718  1
 Cl  Cl10  1  0.92267  0.77282  0.31289  1
 Cl  Cl11  1  0.77282  0.31289  0.92267  1
 Cl  Cl12  1  0.31289  0.92267  0.77282  1
 N  N1  1  0.00000  0.00000  0.00000  1
 Sc  Sc1  1  0.30362  0.02978  0.10073  1
 Sc  Sc2  1  0.97022  0.89927  0.69638  1
 Sc  Sc3  1  0.89927  0.69638  0.97022  1
 Sc  Sc4  1  0.69638  0.97022  0.89927  1
 Sc  Sc5  1  0.02978  0.10073  0.30362  1
 Sc  Sc6  1  0.10073  0.30362  0.02978  1
 Sc  Sc7  1  0.50000  0.50000  0.50000  1
