CIF file written using JARVIS-Tools package.
data_Ca2YBiO5
_symmetry_space_group_name_H-M  'Cc'
_cell_length_a       5.98497
_cell_length_b       6.11152
_cell_length_c       8.89865
_cell_angle_alpha    107.816
_cell_angle_beta     109.684
_cell_angle_gamma    89.9638

_symmetry_Int_Tables_number  9
_chemical_formula_structural  Ca2YBiO5
_chemical_formula_sum  Ca4Y2Bi2O0
_cell_volume  289.85996373015706
_cell_formula_units_Z  2
loop_
  _symmetry_equiv_pos_site_id
 _symmetry_equiv_pos_as_xyz
 1  'x, y, z'
loop_
 _atom_site_type_symbol
 _atom_site_label
 _atom_site_symmetry_multiplicity
 _atom_site_fract_x
 _atom_site_fract_y
 _atom_site_fract_z
 _atom_site_fract_occupancy
 Bi  Bi1  1  0.46998  0.54504  0.01841  1
 Bi  Bi2  1  0.05308  0.04517  0.01850  1
 Ca  Ca1  1  0.33369  0.95321  0.68940  1
 Ca  Ca2  1  0.10130  0.69732  0.24134  1
 Ca  Ca3  1  0.64472  0.19733  0.24142  1
 Ca  Ca4  1  0.85998  0.45325  0.68941  1
 O  O1  1  0.10134  0.63627  0.96575  1
 O  O2  1  0.02713  0.64692  0.54739  1
 O  O3  1  0.55861  0.15824  0.60210  1
 O  O4  1  0.02419  0.14682  0.54704  1
 O  O5  1  0.54746  0.65810  0.60163  1
 O  O6  1  0.36882  0.13606  0.96575  1
 O  O7  1  0.96152  0.33559  0.20083  1
 O  O8  1  0.46271  0.53770  0.25700  1
 O  O9  1  0.29915  0.03775  0.25724  1
 O  O10  1  0.74368  0.83540  0.20067  1
 Y  Y1  1  0.25604  0.34562  0.47148  1
 Y  Y2  1  0.71958  0.84567  0.47137  1
