CIF file written using JARVIS-Tools package.
data_Ge2N2O
_symmetry_space_group_name_H-M  'Cmc2_1'
_cell_length_a       3.09647
_cell_length_b       4.72841
_cell_length_c       8.99211
_cell_angle_alpha    90
_cell_angle_beta     99.917
_cell_angle_gamma    90

_symmetry_Int_Tables_number  36
_chemical_formula_structural  Ge2N2O
_chemical_formula_sum  Ge4N4O2
_cell_volume  129.6898597101205
_cell_formula_units_Z  2
loop_
  _symmetry_equiv_pos_site_id
 _symmetry_equiv_pos_as_xyz
 1  'x, y, z'
loop_
 _atom_site_type_symbol
 _atom_site_label
 _atom_site_symmetry_multiplicity
 _atom_site_fract_x
 _atom_site_fract_y
 _atom_site_fract_z
 _atom_site_fract_occupancy
 Ge  Ge1  1  0.44118  0.73301  0.88231  1
 Ge  Ge2  1  0.20621  -0.01346  0.41243  1
 Ge  Ge3  1  0.79379  0.48654  0.58757  1
 Ge  Ge4  1  0.55882  0.23301  0.11769  1
 N  N1  1  0.11112  0.15014  0.22226  1
 N  N2  1  0.27974  0.27881  0.55949  1
 N  N3  1  0.72026  0.77881  0.44051  1
 N  N4  1  0.88888  0.65014  0.77774  1
 O  O1  1  0.46406  0.10150  0.92815  1
 O  O2  1  0.53594  0.60150  0.07185  1
