CIF file written using JARVIS-Tools package.
data_TlBiF4
_symmetry_space_group_name_H-M  'P2_1/m'
_cell_length_a       6.35505
_cell_length_b       3.74712
_cell_length_c       8.35564
_cell_angle_alpha    90
_cell_angle_beta     96.7184
_cell_angle_gamma    90

_symmetry_Int_Tables_number  11
_chemical_formula_structural  TlBiF4
_chemical_formula_sum  Tl2Bi2F8
_cell_volume  197.60796814973966
_cell_formula_units_Z  2
loop_
  _symmetry_equiv_pos_site_id
 _symmetry_equiv_pos_as_xyz
 1  'x, y, z'
loop_
 _atom_site_type_symbol
 _atom_site_label
 _atom_site_symmetry_multiplicity
 _atom_site_fract_x
 _atom_site_fract_y
 _atom_site_fract_z
 _atom_site_fract_occupancy
 Bi  Bi1  1  0.76143  0.75000  0.61077  1
 Bi  Bi2  1  0.23857  0.25000  0.38923  1
 F  F1  1  0.34641  0.75000  0.24432  1
 F  F2  1  -0.02557  0.75000  0.85094  1
 F  F3  1  -0.01904  0.75000  0.38812  1
 F  F4  1  0.37586  0.75000  0.57700  1
 F  F5  1  0.65359  0.25000  0.75568  1
 F  F6  1  0.62414  0.25000  0.42300  1
 F  F7  1  0.01904  0.25000  0.61188  1
 F  F8  1  0.02557  0.25000  0.14906  1
 Tl  Tl1  1  0.74188  0.75000  0.10076  1
 Tl  Tl2  1  0.25812  0.25000  0.89924  1
