CIF file written using JARVIS-Tools package.
data_Li12Mn2O9
_symmetry_space_group_name_H-M  'P1'
_cell_length_a       5.58104
_cell_length_b       5.67353
_cell_length_c       8.01785
_cell_angle_alpha    87.7881
_cell_angle_beta     87.2347
_cell_angle_gamma    62.2529

_symmetry_Int_Tables_number  1
_chemical_formula_structural  Li12Mn2O9
_chemical_formula_sum  Li2Mn2O9
_cell_volume  224.38614630992336
_cell_formula_units_Z  1
loop_
  _symmetry_equiv_pos_site_id
 _symmetry_equiv_pos_as_xyz
 1  'x, y, z'
loop_
 _atom_site_type_symbol
 _atom_site_label
 _atom_site_symmetry_multiplicity
 _atom_site_fract_x
 _atom_site_fract_y
 _atom_site_fract_z
 _atom_site_fract_occupancy
 Li  Li1  1  0.69893  0.94393  0.91949  1
 Li  Li2  1  0.94948  0.70887  0.58397  1
 Li  Li3  1  0.34360  0.93648  0.57113  1
 Li  Li4  1  0.02793  0.96129  0.26021  1
 Li  Li5  1  0.99972  0.02816  0.77244  1
 Li  Li6  1  0.29470  0.05995  0.07799  1
 Li  Li7  1  0.36626  0.67773  0.91793  1
 Li  Li8  1  0.03570  0.62119  0.08659  1
 Li  Li9  1  0.71632  0.29739  0.06914  1
 Li  Li10  1  0.62189  0.07590  0.40331  1
 Li  Li11  1  0.06913  0.33282  0.39634  1
 Li  Li12  1  0.68055  0.37580  0.58256  1
 Mn  Mn1  1  0.62110  0.66997  0.27367  1
 Mn  Mn2  1  0.30375  0.32975  0.75737  1
 O  O1  1  0.38528  0.32232  0.97997  1
 O  O2  1  0.63804  0.03910  0.66929  1
 O  O3  1  0.91810  0.70876  0.34934  1
 O  O4  1  0.34384  0.00691  0.32208  1
 O  O5  1  0.02081  0.96066  0.00841  1
 O  O6  1  0.64902  0.67536  0.03659  1
 O  O7  1  0.28358  0.66720  0.68321  1
 O  O8  1  0.74564  0.31226  0.32556  1
 O  O9  1  0.04416  0.29981  0.63403  1
