CIF file written using JARVIS-Tools package.
data_AlMo3F15
_symmetry_space_group_name_H-M  'P2_1/m'
_cell_length_a       9.89064
_cell_length_b       5.69456
_cell_length_c       9.79058
_cell_angle_alpha    90
_cell_angle_beta     90
_cell_angle_gamma    104.552

_symmetry_Int_Tables_number  11
_chemical_formula_structural  AlMo3F15
_chemical_formula_sum  Al2Mo6F30
_cell_volume  533.7420993449769
_cell_formula_units_Z  2
loop_
  _symmetry_equiv_pos_site_id
 _symmetry_equiv_pos_as_xyz
 1  'x, y, z'
loop_
 _atom_site_type_symbol
 _atom_site_label
 _atom_site_symmetry_multiplicity
 _atom_site_fract_x
 _atom_site_fract_y
 _atom_site_fract_z
 _atom_site_fract_occupancy
 Al  Al1  1  0.90654  0.44646  0.25000  1
 Al  Al2  1  0.42679  0.55354  0.75000  1
 F  F1  1  0.83258  0.67280  0.89090  1
 F  F2  1  0.64675  0.81009  0.44408  1
 F  F3  1  0.13323  0.71935  0.89780  1
 F  F4  1  0.96939  0.88176  0.41257  1
 F  F5  1  0.64675  0.81009  0.05592  1
 F  F6  1  0.30671  0.87347  0.38389  1
 F  F7  1  0.68659  0.18991  0.55592  1
 F  F8  1  0.36394  0.11824  0.58743  1
 F  F9  1  0.02662  0.12653  0.61611  1
 F  F10  1  0.77017  0.00072  0.75000  1
 F  F11  1  0.56167  0.42793  0.75000  1
 F  F12  1  0.25923  0.40093  0.75000  1
 F  F13  1  0.77167  0.57207  0.25000  1
 F  F14  1  0.56317  0.99928  0.25000  1
 F  F15  1  0.07410  0.59907  0.25000  1
 F  F16  1  0.45105  0.75196  0.60937  1
 F  F17  1  0.30671  0.87347  0.11611  1
 F  F18  1  0.68659  0.18991  0.94408  1
 F  F19  1  0.20011  0.28065  0.10220  1
 F  F20  1  0.50076  0.32720  0.10910  1
 F  F21  1  0.45105  0.75196  0.89063  1
 F  F22  1  0.20011  0.28065  0.39780  1
 F  F23  1  0.50076  0.32720  0.39090  1
 F  F24  1  0.88228  0.24804  0.10937  1
 F  F25  1  0.13323  0.71935  0.60220  1
 F  F26  1  0.36394  0.11824  0.91257  1
 F  F27  1  0.83258  0.67280  0.60910  1
 F  F28  1  0.02662  0.12653  0.88389  1
 F  F29  1  0.88228  0.24804  0.39063  1
 F  F30  1  0.96939  0.88176  0.08743  1
 Mo  Mo1  1  0.82813  0.97857  0.95439  1
 Mo  Mo2  1  0.50520  0.02143  0.04561  1
 Mo  Mo3  1  0.16667  0.00000  0.00000  1
 Mo  Mo4  1  0.82813  0.97857  0.54561  1
 Mo  Mo5  1  0.50520  0.02143  0.45439  1
 Mo  Mo6  1  0.16667  0.00000  0.50000  1
