CIF file written using JARVIS-Tools package.
data_NbO2F
_symmetry_space_group_name_H-M  'Amm2'
_cell_length_a       3.99308
_cell_length_b       5.6304
_cell_length_c       5.6304
_cell_angle_alpha    92.4674
_cell_angle_beta     90
_cell_angle_gamma    90

_symmetry_Int_Tables_number  38
_chemical_formula_structural  NbO2F
_chemical_formula_sum  Nb2O4F2
_cell_volume  126.46872374911615
_cell_formula_units_Z  2
loop_
  _symmetry_equiv_pos_site_id
 _symmetry_equiv_pos_as_xyz
 1  'x, y, z'
loop_
 _atom_site_type_symbol
 _atom_site_label
 _atom_site_symmetry_multiplicity
 _atom_site_fract_x
 _atom_site_fract_y
 _atom_site_fract_z
 _atom_site_fract_occupancy
 F  F1  1  0.50000  0.51550  0.48450  1
 F  F2  1  0.00000  0.74753  0.25247  1
 Nb  Nb1  1  0.00000  0.47699  0.52301  1
 Nb  Nb2  1  0.00000  0.00214  0.99786  1
 O  O1  1  0.50000  0.99447  0.00553  1
 O  O2  1  0.00000  0.25133  0.74867  1
 O  O3  1  0.00000  0.75139  0.73935  1
 O  O4  1  0.00000  0.26065  0.24861  1
