CIF file written using JARVIS-Tools package.
data_KPF6
_symmetry_space_group_name_H-M  'R-3m'
_cell_length_a       5.1664
_cell_length_b       5.57404
_cell_length_c       5.16639
_cell_angle_alpha    62.3911
_cell_angle_beta     60
_cell_angle_gamma    62.3911

_symmetry_Int_Tables_number  166
_chemical_formula_structural  KPF6
_chemical_formula_sum  KPF6
_cell_volume  108.8466119306264
_cell_formula_units_Z  1
loop_
  _symmetry_equiv_pos_site_id
 _symmetry_equiv_pos_as_xyz
 1  'x, y, z'
loop_
 _atom_site_type_symbol
 _atom_site_label
 _atom_site_symmetry_multiplicity
 _atom_site_fract_x
 _atom_site_fract_y
 _atom_site_fract_z
 _atom_site_fract_occupancy
 F  F1  1  0.08234  0.20084  0.08234  1
 F  F2  1  0.08234  0.20084  0.63449  1
 F  F3  1  0.63449  0.20084  0.08234  1
 F  F4  1  0.36551  0.79916  0.91766  1
 F  F5  1  0.91766  0.79916  0.36551  1
 F  F6  1  0.91766  0.79916  0.91766  1
 K  K1  1  0.50000  0.50000  0.50000  1
 P  P1  1  0.00000  0.00000  0.00000  1
