CIF file written using JARVIS-Tools package.
data_PuSi2
_symmetry_space_group_name_H-M  'I4_1/amd'
_cell_length_a       4.0178
_cell_length_b       4.0178
_cell_length_c       7.61097
_cell_angle_alpha    105.304
_cell_angle_beta     105.304
_cell_angle_gamma    90

_symmetry_Int_Tables_number  141
_chemical_formula_structural  PuSi2
_chemical_formula_sum  Pu2Si4
_cell_volume  113.98122601574191
_cell_formula_units_Z  2
loop_
  _symmetry_equiv_pos_site_id
 _symmetry_equiv_pos_as_xyz
 1  'x, y, z'
loop_
 _atom_site_type_symbol
 _atom_site_label
 _atom_site_symmetry_multiplicity
 _atom_site_fract_x
 _atom_site_fract_y
 _atom_site_fract_z
 _atom_site_fract_occupancy
 Pu  Pu1  1  0.87500  0.62500  0.25000  1
 Pu  Pu2  1  0.12500  0.37500  0.75000  1
 Si  Si1  1  0.70772  0.95772  0.91543  1
 Si  Si2  1  0.45772  0.20772  0.41543  1
 Si  Si3  1  0.54228  0.79228  0.58457  1
 Si  Si4  1  0.29228  0.04228  0.08457  1
