CIF file written using JARVIS-Tools package.
data_K2SO3
_symmetry_space_group_name_H-M  'P-3m1'
_cell_length_a       5.9641
_cell_length_b       5.9641
_cell_length_c       6.89552
_cell_angle_alpha    90
_cell_angle_beta     90
_cell_angle_gamma    120

_symmetry_Int_Tables_number  164
_chemical_formula_structural  K2SO3
_chemical_formula_sum  K4S2O6
_cell_volume  212.4155015456127
_cell_formula_units_Z  2
loop_
  _symmetry_equiv_pos_site_id
 _symmetry_equiv_pos_as_xyz
 1  'x, y, z'
loop_
 _atom_site_type_symbol
 _atom_site_label
 _atom_site_symmetry_multiplicity
 _atom_site_fract_x
 _atom_site_fract_y
 _atom_site_fract_z
 _atom_site_fract_occupancy
 K  K1  1  0.66667  0.33333  0.67231  1
 K  K2  1  0.33333  0.66667  0.32769  1
 K  K3  1  0.00000  0.00000  0.50000  1
 K  K4  1  0.00000  0.00000  0.00000  1
 O  O1  1  0.19724  0.39448  0.73377  1
 O  O2  1  0.60552  0.80276  0.73377  1
 O  O3  1  0.19724  0.80276  0.73377  1
 O  O4  1  0.80276  0.19724  0.26623  1
 O  O5  1  0.80276  0.60552  0.26623  1
 O  O6  1  0.39448  0.19724  0.26623  1
 S  S1  1  0.66667  0.33333  0.17593  1
 S  S2  1  0.33333  0.66667  0.82407  1
