CIF file written using JARVIS-Tools package.
data_Li2VSiCO7
_symmetry_space_group_name_H-M  'P2_1/m'
_cell_length_a       5.00988
_cell_length_b       6.29772
_cell_length_c       8.43846
_cell_angle_alpha    90
_cell_angle_beta     93.1799
_cell_angle_gamma    90

_symmetry_Int_Tables_number  11
_chemical_formula_structural  Li2VSiCO7
_chemical_formula_sum  Li4V2Si2C2O4
_cell_volume  265.8302781615064
_cell_formula_units_Z  2
loop_
  _symmetry_equiv_pos_site_id
 _symmetry_equiv_pos_as_xyz
 1  'x, y, z'
loop_
 _atom_site_type_symbol
 _atom_site_label
 _atom_site_symmetry_multiplicity
 _atom_site_fract_x
 _atom_site_fract_y
 _atom_site_fract_z
 _atom_site_fract_occupancy
 C  C1  1  0.26520  0.25000  0.04962  1
 C  C2  1  0.73480  0.75000  0.95038  1
 Li  Li1  1  0.75409  0.48708  0.21985  1
 Li  Li2  1  0.75409  0.01292  0.21985  1
 Li  Li3  1  0.24591  0.51292  0.78015  1
 Li  Li4  1  0.24591  0.98708  0.78015  1
 O  O1  1  0.70217  0.75000  0.09771  1
 O  O2  1  0.97078  0.75000  0.89033  1
 O  O3  1  0.46547  0.25000  0.15752  1
 O  O4  1  0.19848  0.95913  0.32112  1
 O  O5  1  0.19848  0.54087  0.32112  1
 O  O6  1  0.02922  0.25000  0.10967  1
 O  O7  1  0.62794  0.75000  0.45057  1
 O  O8  1  0.37206  0.25000  0.54943  1
 O  O9  1  0.80152  0.04087  0.67888  1
 O  O10  1  0.80152  0.45913  0.67888  1
 O  O11  1  0.82979  0.25000  0.40268  1
 O  O12  1  0.53453  0.75000  0.84248  1
 O  O13  1  0.17021  0.75000  0.59732  1
 O  O14  1  0.29783  0.25000  0.90229  1
 Si  Si1  1  0.69955  0.25000  0.57799  1
 Si  Si2  1  0.30045  0.75000  0.42201  1
 V  V1  1  0.81001  0.75000  0.65837  1
 V  V2  1  0.18999  0.25000  0.34163  1
