CIF file written using JARVIS-Tools package.
data_Li3TiCu4O8
_symmetry_space_group_name_H-M  'C2/m'
_cell_length_a       6.33853
_cell_length_b       6.33853
_cell_length_c       6.12943
_cell_angle_alpha    80.0292
_cell_angle_beta     53.4299
_cell_angle_gamma    53.7519

_symmetry_Int_Tables_number  12
_chemical_formula_structural  Li3TiCu4O8
_chemical_formula_sum  Li3TiCu4O8
_cell_volume  153.28035875608012
_cell_formula_units_Z  1
loop_
  _symmetry_equiv_pos_site_id
 _symmetry_equiv_pos_as_xyz
 1  'x, y, z'
loop_
 _atom_site_type_symbol
 _atom_site_label
 _atom_site_symmetry_multiplicity
 _atom_site_fract_x
 _atom_site_fract_y
 _atom_site_fract_z
 _atom_site_fract_occupancy
 Cu  Cu1  1  0.00000  0.50000  0.50000  1
 Cu  Cu2  1  0.00000  0.00000  0.00000  1
 Cu  Cu3  1  0.50000  -0.00000  0.00000  1
 Cu  Cu4  1  0.00000  0.50000  -0.00000  1
 Li  Li1  1  -0.00000  -0.00000  0.50000  1
 Li  Li2  1  0.50000  -0.00000  0.50000  1
 Li  Li3  1  0.50000  0.50000  0.50000  1
 O  O1  1  0.47191  0.28680  0.81490  1
 O  O2  1  0.98955  0.23825  0.71486  1
 O  O3  1  0.52340  0.70441  0.71486  1
 O  O4  1  0.96606  0.79502  0.82896  1
 O  O5  1  0.03394  0.20498  0.17104  1
 O  O6  1  0.47660  0.29559  0.28514  1
 O  O7  1  0.01045  0.76175  0.28514  1
 O  O8  1  0.52809  0.71320  0.18510  1
 Ti  Ti1  1  0.50000  0.50000  -0.00000  1
