CIF file written using JARVIS-Tools package.
data_KSiPCO7
_symmetry_space_group_name_H-M  'P2_1'
_cell_length_a       4.89444
_cell_length_b       5.96378
_cell_length_c       9.27587
_cell_angle_alpha    90
_cell_angle_beta     81.0629
_cell_angle_gamma    90

_symmetry_Int_Tables_number  4
_chemical_formula_structural  KSiPCO7
_chemical_formula_sum  K2Si2P2C2O4
_cell_volume  267.46944475590584
_cell_formula_units_Z  2
loop_
  _symmetry_equiv_pos_site_id
 _symmetry_equiv_pos_as_xyz
 1  'x, y, z'
loop_
 _atom_site_type_symbol
 _atom_site_label
 _atom_site_symmetry_multiplicity
 _atom_site_fract_x
 _atom_site_fract_y
 _atom_site_fract_z
 _atom_site_fract_occupancy
 C  C1  1  0.46449  0.23045  0.10313  1
 C  C2  1  0.53551  0.73045  0.89687  1
 K  K1  1  0.89906  0.70274  0.15842  1
 K  K2  1  0.10094  0.20274  0.84158  1
 O  O1  1  0.43126  0.73124  0.02670  1
 O  O2  1  0.19350  0.23046  0.15565  1
 O  O3  1  0.80650  0.73046  0.84435  1
 O  O4  1  0.27039  0.93064  0.34036  1
 O  O5  1  0.27110  0.52823  0.34072  1
 O  O6  1  0.59911  0.23032  0.21760  1
 O  O7  1  0.58239  0.72925  0.49156  1
 O  O8  1  0.41761  0.22925  0.50844  1
 O  O9  1  0.72890  0.02823  0.65928  1
 O  O10  1  0.92997  0.23009  0.42564  1
 O  O11  1  0.72961  0.43064  0.65964  1
 O  O12  1  0.40089  0.73032  0.78240  1
 O  O13  1  0.07003  0.73009  0.57436  1
 O  O14  1  0.56874  0.23124  -0.02670  1
 P  P1  1  0.70489  0.22977  0.55928  1
 P  P2  1  0.29511  0.72977  0.44072  1
 Si  Si1  1  0.72626  0.72896  0.65685  1
 Si  Si2  1  0.27374  0.22896  0.34315  1
