CIF file written using JARVIS-Tools package.
data_Li2Cr2SiO6
_symmetry_space_group_name_H-M  'Fddd'
_cell_length_a       5.06977
_cell_length_b       5.06971
_cell_length_c       8.87419
_cell_angle_alpha    100.704
_cell_angle_beta     100.703
_cell_angle_gamma    110.473

_symmetry_Int_Tables_number  70
_chemical_formula_structural  Li2Cr2SiO6
_chemical_formula_sum  Li4Cr4Si2O2
_cell_volume  202.02564096729316
_cell_formula_units_Z  2
loop_
  _symmetry_equiv_pos_site_id
 _symmetry_equiv_pos_as_xyz
 1  'x, y, z'
loop_
 _atom_site_type_symbol
 _atom_site_label
 _atom_site_symmetry_multiplicity
 _atom_site_fract_x
 _atom_site_fract_y
 _atom_site_fract_z
 _atom_site_fract_occupancy
 Cr  Cr1  1  0.48250  0.48217  0.96484  1
 Cr  Cr2  1  0.82408  0.82375  0.64794  1
 Cr  Cr3  1  0.23253  0.73219  0.46484  1
 Cr  Cr4  1  0.57404  0.07371  0.14794  1
 Li  Li1  1  0.31107  0.31067  0.62181  1
 Li  Li2  1  0.99558  0.99514  0.99099  1
 Li  Li3  1  0.74563  0.24522  0.49095  1
 Li  Li4  1  0.06102  0.56056  0.12182  1
 O  O1  1  0.44059  0.86565  0.30639  1
 O  O2  1  0.69197  0.21010  0.96596  1
 O  O3  1  0.86600  0.44025  0.30639  1
 O  O4  1  0.36458  0.34577  0.14682  1
 O  O5  1  0.09613  0.61427  0.64682  1
 O  O6  1  0.19059  0.11566  0.80639  1
 O  O7  1  0.27414  0.75533  0.96595  1
 O  O8  1  0.61598  0.69024  0.80639  1
 O  O9  1  0.96046  0.94167  0.46596  1
 O  O10  1  0.78240  0.80054  0.14682  1
 O  O11  1  0.50571  0.52384  0.46596  1
 O  O12  1  0.55090  0.03210  0.64682  1
 Si  Si1  1  0.40329  0.90295  0.80639  1
 Si  Si2  1  0.65330  0.65295  0.30639  1
