CIF file written using JARVIS-Tools package.
data_TeWCl9
_symmetry_space_group_name_H-M  'P-1'
_cell_length_a       6.53654
_cell_length_b       9.45848
_cell_length_c       11.4848
_cell_angle_alpha    72.9271
_cell_angle_beta     74.0059
_cell_angle_gamma    88.8057

_symmetry_Int_Tables_number  2
_chemical_formula_structural  TeWCl9
_chemical_formula_sum  Te2W2Cl8
_cell_volume  651.0975603494898
_cell_formula_units_Z  2
loop_
  _symmetry_equiv_pos_site_id
 _symmetry_equiv_pos_as_xyz
 1  'x, y, z'
loop_
 _atom_site_type_symbol
 _atom_site_label
 _atom_site_symmetry_multiplicity
 _atom_site_fract_x
 _atom_site_fract_y
 _atom_site_fract_z
 _atom_site_fract_occupancy
 Cl  Cl1  1  0.68793  0.12284  0.83705  1
 Cl  Cl2  1  0.91011  0.39350  0.17176  1
 Cl  Cl3  1  0.56921  0.49914  0.70377  1
 Cl  Cl4  1  0.65144  0.24737  0.47475  1
 Cl  Cl5  1  0.23458  0.15039  0.39164  1
 Cl  Cl6  1  0.09220  0.36538  0.63086  1
 Cl  Cl7  1  0.90780  0.63462  0.36914  1
 Cl  Cl8  1  0.34856  0.75263  0.52525  1
 Cl  Cl9  1  0.50059  0.30518  0.09056  1
 Cl  Cl10  1  0.89109  0.80093  0.06292  1
 Cl  Cl11  1  0.76542  0.84961  0.60836  1
 Cl  Cl12  1  0.10891  0.19907  0.93708  1
 Cl  Cl13  1  0.71510  0.04548  0.27902  1
 Cl  Cl14  1  0.49941  0.69482  0.90944  1
 Cl  Cl15  1  0.31207  0.87716  0.16295  1
 Cl  Cl16  1  0.08989  0.60650  0.82824  1
 Cl  Cl17  1  0.28490  0.95452  0.72098  1
 Cl  Cl18  1  0.43079  0.50086  0.29623  1
 Te  Te1  1  0.87049  0.33600  0.83551  1
 Te  Te2  1  0.12951  0.66400  0.16449  1
 W  W1  1  0.43111  0.73817  0.70875  1
 W  W2  1  0.56889  0.26183  0.29125  1
