CIF file written using JARVIS-Tools package.
data_Li3CoN6O12
_symmetry_space_group_name_H-M  'R-3m'
_cell_length_a       6.227
_cell_length_b       6.227
_cell_length_c       6.227
_cell_angle_alpha    75.6355
_cell_angle_beta     75.6355
_cell_angle_gamma    75.6355

_symmetry_Int_Tables_number  166
_chemical_formula_structural  Li3CoN6O12
_chemical_formula_sum  Li3CoN6O2
_cell_volume  222.07200111774773
_cell_formula_units_Z  1
loop_
  _symmetry_equiv_pos_site_id
 _symmetry_equiv_pos_as_xyz
 1  'x, y, z'
loop_
 _atom_site_type_symbol
 _atom_site_label
 _atom_site_symmetry_multiplicity
 _atom_site_fract_x
 _atom_site_fract_y
 _atom_site_fract_z
 _atom_site_fract_occupancy
 Co  Co1  1  0.00000  0.00000  0.00000  1
 Li  Li1  1  0.26685  0.26685  0.26685  1
 Li  Li2  1  0.50000  0.50000  0.50000  1
 Li  Li3  1  0.73315  0.73315  0.73315  1
 N  N1  1  0.20623  0.20623  0.83321  1
 N  N2  1  0.20623  0.83321  0.20623  1
 N  N3  1  0.16679  0.79377  0.79377  1
 N  N4  1  0.83321  0.20623  0.20623  1
 N  N5  1  0.79377  0.16679  0.79377  1
 N  N6  1  0.79377  0.79377  0.16679  1
 O  O1  1  0.75063  0.75063  0.37818  1
 O  O2  1  0.24937  0.62182  0.24937  1
 O  O3  1  0.06473  0.70348  0.70348  1
 O  O4  1  0.29652  0.93527  0.29652  1
 O  O5  1  0.24937  0.24937  0.62182  1
 O  O6  1  0.93527  0.29652  0.29652  1
 O  O7  1  0.37818  0.75063  0.75063  1
 O  O8  1  0.70348  0.70348  0.06473  1
 O  O9  1  0.70348  0.06473  0.70348  1
 O  O10  1  0.29652  0.29652  0.93527  1
 O  O11  1  0.62182  0.24937  0.24937  1
 O  O12  1  0.75063  0.37818  0.75063  1
