CIF file written using JARVIS-Tools package.
data_K4Na2FeH3F12
_symmetry_space_group_name_H-M  'P2'
_cell_length_a       5.75122
_cell_length_b       5.91575
_cell_length_c       8.37096
_cell_angle_alpha    90
_cell_angle_beta     93.8504
_cell_angle_gamma    90

_symmetry_Int_Tables_number  3
_chemical_formula_structural  K4Na2FeH3F12
_chemical_formula_sum  K4Na2FeH3F2
_cell_volume  284.1605949524616
_cell_formula_units_Z  1
loop_
  _symmetry_equiv_pos_site_id
 _symmetry_equiv_pos_as_xyz
 1  'x, y, z'
loop_
 _atom_site_type_symbol
 _atom_site_label
 _atom_site_symmetry_multiplicity
 _atom_site_fract_x
 _atom_site_fract_y
 _atom_site_fract_z
 _atom_site_fract_occupancy
 F  F1  1  0.70041  0.77174  0.01175  1
 F  F2  1  0.76912  0.76308  0.49570  1
 F  F3  1  0.98858  0.99073  0.27444  1
 F  F4  1  0.01142  0.99073  0.72556  1
 F  F5  1  0.23006  0.21521  0.50491  1
 F  F6  1  0.23088  0.76308  0.50430  1
 F  F7  1  0.74426  0.28934  0.96390  1
 F  F8  1  0.53049  0.47580  0.76329  1
 F  F9  1  0.46951  0.47580  0.23671  1
 F  F10  1  0.29959  0.77174  0.98825  1
 F  F11  1  0.76994  0.21521  0.49509  1
 F  F12  1  0.25574  0.28934  0.03610  1
 Fe  Fe1  1  -0.00000  0.99016  0.50000  1
 H  H1  1  0.50000  0.75455  -0.00000  1
 H  H2  1  0.36862  0.38966  0.12588  1
 H  H3  1  0.63138  0.38966  0.87412  1
 K  K1  1  0.48418  0.98516  0.26846  1
 K  K2  1  0.05368  0.49929  0.75595  1
 K  K3  1  0.51582  0.98516  0.73154  1
 K  K4  1  0.94632  0.49929  0.24405  1
 Na  Na1  1  0.50000  0.48697  0.50000  1
 Na  Na2  1  0.00000  0.00830  0.00000  1
