CIF file written using JARVIS-Tools package.
data_Te6RhCl3
_symmetry_space_group_name_H-M  'R-3c'
_cell_length_a       8.96643
_cell_length_b       8.96643
_cell_length_c       8.96643
_cell_angle_alpha    107.46
_cell_angle_beta     107.46
_cell_angle_gamma    107.459

_symmetry_Int_Tables_number  167
_chemical_formula_structural  Te6RhCl3
_chemical_formula_sum  Te2Rh2Cl6
_cell_volume  592.664000161672
_cell_formula_units_Z  2
loop_
  _symmetry_equiv_pos_site_id
 _symmetry_equiv_pos_as_xyz
 1  'x, y, z'
loop_
 _atom_site_type_symbol
 _atom_site_label
 _atom_site_symmetry_multiplicity
 _atom_site_fract_x
 _atom_site_fract_y
 _atom_site_fract_z
 _atom_site_fract_occupancy
 Cl  Cl1  1  0.51988  0.98012  0.25000  1
 Cl  Cl2  1  0.48012  0.01988  0.75000  1
 Cl  Cl3  1  0.75000  0.48012  0.01988  1
 Cl  Cl4  1  0.01988  0.75000  0.48012  1
 Cl  Cl5  1  0.25000  0.51988  0.98012  1
 Cl  Cl6  1  0.98012  0.25000  0.51988  1
 Rh  Rh1  1  0.25000  0.25000  0.25000  1
 Rh  Rh2  1  0.75000  0.75000  0.75000  1
 Te  Te1  1  0.41724  0.67333  0.69344  1
 Te  Te2  1  0.08276  0.80656  0.82667  1
 Te  Te3  1  0.80656  0.82667  0.08276  1
 Te  Te4  1  0.69344  0.41724  0.67333  1
 Te  Te5  1  0.32667  0.30656  0.58276  1
 Te  Te6  1  0.19344  0.17333  0.91724  1
 Te  Te7  1  0.91724  0.19344  0.17333  1
 Te  Te8  1  0.17333  0.91724  0.19344  1
 Te  Te9  1  0.30656  0.58276  0.32667  1
 Te  Te10  1  0.58276  0.32667  0.30656  1
 Te  Te11  1  0.67333  0.69344  0.41724  1
 Te  Te12  1  0.82667  0.08276  0.80656  1
