CIF file written using JARVIS-Tools package.
data_MnAl2O4
_symmetry_space_group_name_H-M  'Fd-3m'
_cell_length_a       5.83427
_cell_length_b       5.83433
_cell_length_c       5.83427
_cell_angle_alpha    120
_cell_angle_beta     90
_cell_angle_gamma    60.0003

_symmetry_Int_Tables_number  227
_chemical_formula_structural  MnAl2O4
_chemical_formula_sum  Mn2Al4O8
_cell_volume  140.42767943549657
_cell_formula_units_Z  2
loop_
  _symmetry_equiv_pos_site_id
 _symmetry_equiv_pos_as_xyz
 1  'x, y, z'
loop_
 _atom_site_type_symbol
 _atom_site_label
 _atom_site_symmetry_multiplicity
 _atom_site_fract_x
 _atom_site_fract_y
 _atom_site_fract_z
 _atom_site_fract_occupancy
 Al  Al1  1  0.37500  0.25000  0.37500  1
 Al  Al2  1  0.37500  0.25000  0.87500  1
 Al  Al3  1  0.37500  0.75000  0.37500  1
 Al  Al4  1  0.87500  0.75000  0.37500  1
 Mn  Mn1  1  0.00000  0.00000  0.00000  1
 Mn  Mn2  1  0.75000  0.50000  0.75000  1
 O  O1  1  0.14102  0.28204  0.14102  1
 O  O2  1  0.17305  0.21796  0.60898  1
 O  O3  1  0.14102  0.71796  0.57695  1
 O  O4  1  0.14102  0.71796  0.14102  1
 O  O5  1  0.60898  0.21796  0.60898  1
 O  O6  1  0.57695  0.28204  0.14102  1
 O  O7  1  0.60898  0.78204  0.60898  1
 O  O8  1  0.60898  0.78204  0.17305  1
