CIF file written using JARVIS-Tools package.
data_Ta2H4O7
_symmetry_space_group_name_H-M  'Fdd2'
_cell_length_a       7.3633
_cell_length_b       8.0085
_cell_length_c       7.45342
_cell_angle_alpha    56.7412
_cell_angle_beta     65.4326
_cell_angle_gamma    57.8262

_symmetry_Int_Tables_number  43
_chemical_formula_structural  Ta2H4O7
_chemical_formula_sum  Ta4H8O4
_cell_volume  306.29821820781365
_cell_formula_units_Z  2
loop_
  _symmetry_equiv_pos_site_id
 _symmetry_equiv_pos_as_xyz
 1  'x, y, z'
loop_
 _atom_site_type_symbol
 _atom_site_label
 _atom_site_symmetry_multiplicity
 _atom_site_fract_x
 _atom_site_fract_y
 _atom_site_fract_z
 _atom_site_fract_occupancy
 H  H1  1  0.27025  0.27025  -0.02025  1
 H  H2  1  0.02025  0.02025  0.72975  1
 H  H3  1  0.24520  0.03932  0.20724  1
 H  H4  1  0.03932  0.24520  0.00823  1
 H  H5  1  0.79276  0.99177  0.75480  1
 H  H6  1  0.99177  0.79276  -0.03932  1
 H  H7  1  0.63747  0.63747  0.11253  1
 H  H8  1  0.88747  0.88747  0.36253  1
 O  O1  1  0.76290  0.47311  0.47044  1
 O  O2  1  0.92996  0.92996  0.82004  1
 O  O3  1  0.20646  0.52956  0.52689  1
 O  O4  1  0.17055  0.17055  0.57945  1
 O  O5  1  0.55048  0.55048  0.19952  1
 O  O6  1  0.13483  0.60742  0.13361  1
 O  O7  1  0.52956  0.20646  0.23710  1
 O  O8  1  0.47311  0.76290  0.79354  1
 O  O9  1  0.17996  0.17996  0.07004  1
 O  O10  1  0.42055  0.42055  0.82945  1
 O  O11  1  0.86639  0.37586  0.86517  1
 O  O12  1  0.37586  0.86639  0.39258  1
 O  O13  1  0.60742  0.13483  0.62414  1
 O  O14  1  0.80048  0.80048  0.44952  1
 Ta  Ta1  1  0.50508  0.42745  0.54044  1
 Ta  Ta2  1  0.97297  0.45956  0.57255  1
 Ta  Ta3  1  0.42745  0.50508  0.02703  1
 Ta  Ta4  1  0.45956  0.97297  0.49492  1
