CIF file written using JARVIS-Tools package.
data_ZnIn2S4
_symmetry_space_group_name_H-M  'P6_3mc'
_cell_length_a       3.91487
_cell_length_b       3.91487
_cell_length_c       24.7562
_cell_angle_alpha    90
_cell_angle_beta     90
_cell_angle_gamma    120

_symmetry_Int_Tables_number  186
_chemical_formula_structural  ZnIn2S4
_chemical_formula_sum  Zn2In4S8
_cell_volume  328.58603693465176
_cell_formula_units_Z  2
loop_
  _symmetry_equiv_pos_site_id
 _symmetry_equiv_pos_as_xyz
 1  'x, y, z'
loop_
 _atom_site_type_symbol
 _atom_site_label
 _atom_site_symmetry_multiplicity
 _atom_site_fract_x
 _atom_site_fract_y
 _atom_site_fract_z
 _atom_site_fract_occupancy
 In  In1  1  0.66667  0.33333  0.59437  1
 In  In2  1  0.33333  0.66667  0.09437  1
 In  In3  1  0.33333  0.66667  0.75644  1
 In  In4  1  0.66667  0.33333  0.25644  1
 S  S1  1  0.33333  0.66667  0.93437  1
 S  S2  1  0.66667  0.33333  0.43437  1
 S  S3  1  0.66667  0.33333  0.69394  1
 S  S4  1  0.00000  0.00000  0.80758  1
 S  S5  1  0.00000  0.00000  0.05080  1
 S  S6  1  0.33333  0.66667  0.19394  1
 S  S7  1  0.00000  0.00000  0.30758  1
 S  S8  1  0.00000  0.00000  0.55080  1
 Zn  Zn1  1  0.00000  0.00000  0.91300  1
 Zn  Zn2  1  0.00000  0.00000  0.41300  1
