CIF file written using JARVIS-Tools package.
data_V2FeO6
_symmetry_space_group_name_H-M  'C2/c'
_cell_length_a       6.70816
_cell_length_b       6.70817
_cell_length_c       5.77038
_cell_angle_alpha    74.7776
_cell_angle_beta     105.222
_cell_angle_gamma    96.3491

_symmetry_Int_Tables_number  15
_chemical_formula_structural  V2FeO6
_chemical_formula_sum  V4Fe2O2
_cell_volume  241.52085946270358
_cell_formula_units_Z  2
loop_
  _symmetry_equiv_pos_site_id
 _symmetry_equiv_pos_as_xyz
 1  'x, y, z'
loop_
 _atom_site_type_symbol
 _atom_site_label
 _atom_site_symmetry_multiplicity
 _atom_site_fract_x
 _atom_site_fract_y
 _atom_site_fract_z
 _atom_site_fract_occupancy
 Fe  Fe1  1  0.08427  0.08427  0.75000  1
 Fe  Fe2  1  0.91573  0.91573  0.25000  1
 O  O1  1  0.62800  0.91460  0.27037  1
 O  O2  1  0.03208  0.80714  0.64086  1
 O  O3  1  0.08540  0.37200  0.77037  1
 O  O4  1  0.91460  0.62800  0.22963  1
 O  O5  1  0.37721  0.65598  0.56381  1
 O  O6  1  0.19286  0.96792  0.14086  1
 O  O7  1  0.34402  0.62279  0.06381  1
 O  O8  1  0.96792  0.19286  0.35914  1
 O  O9  1  0.37200  0.08540  0.72963  1
 O  O10  1  0.62279  0.34402  0.43619  1
 O  O11  1  0.80714  0.03208  0.85914  1
 O  O12  1  0.65598  0.37721  0.93619  1
 V  V1  1  0.79675  0.39058  0.23928  1
 V  V2  1  0.60942  0.20325  0.73928  1
 V  V3  1  0.39058  0.79675  0.26072  1
 V  V4  1  0.20325  0.60942  0.76072  1
