CIF file written using JARVIS-Tools package.
data_SrMg2FeH8
_symmetry_space_group_name_H-M  'P-3m1'
_cell_length_a       4.48219
_cell_length_b       4.48219
_cell_length_c       6.54704
_cell_angle_alpha    90
_cell_angle_beta     90
_cell_angle_gamma    120

_symmetry_Int_Tables_number  164
_chemical_formula_structural  SrMg2FeH8
_chemical_formula_sum  SrMg2FeH8
_cell_volume  113.90822144892782
_cell_formula_units_Z  1
loop_
  _symmetry_equiv_pos_site_id
 _symmetry_equiv_pos_as_xyz
 1  'x, y, z'
loop_
 _atom_site_type_symbol
 _atom_site_label
 _atom_site_symmetry_multiplicity
 _atom_site_fract_x
 _atom_site_fract_y
 _atom_site_fract_z
 _atom_site_fract_occupancy
 Fe  Fe1  1  0.00000  0.00000  0.00000  1
 H  H1  1  0.83825  0.16175  0.14469  1
 H  H2  1  0.32351  0.16175  0.14469  1
 H  H3  1  0.83825  0.67649  0.14469  1
 H  H4  1  0.16175  0.83825  0.85531  1
 H  H5  1  0.67649  0.83825  0.85531  1
 H  H6  1  0.16175  0.32351  0.85531  1
 H  H7  1  0.66667  0.33333  0.58585  1
 H  H8  1  0.33333  0.66667  0.41415  1
 Mg  Mg1  1  0.66667  0.33333  0.87700  1
 Mg  Mg2  1  0.33333  0.66667  0.12300  1
 Sr  Sr1  1  0.00000  0.00000  0.50000  1
