CIF file written using JARVIS-Tools package.
data_NaLi2BP2O8
_symmetry_space_group_name_H-M  'P-1'
_cell_length_a       5.44422
_cell_length_b       7.41268
_cell_length_c       7.99252
_cell_angle_alpha    103.256
_cell_angle_beta     108.9
_cell_angle_gamma    87.6059

_symmetry_Int_Tables_number  2
_chemical_formula_structural  NaLi2BP2O8
_chemical_formula_sum  Na2Li4B2P4O6
_cell_volume  296.8415636653585
_cell_formula_units_Z  2
loop_
  _symmetry_equiv_pos_site_id
 _symmetry_equiv_pos_as_xyz
 1  'x, y, z'
loop_
 _atom_site_type_symbol
 _atom_site_label
 _atom_site_symmetry_multiplicity
 _atom_site_fract_x
 _atom_site_fract_y
 _atom_site_fract_z
 _atom_site_fract_occupancy
 B  B1  1  0.74853  0.04758  0.76659  1
 B  B2  1  0.25147  0.95242  0.23341  1
 Li  Li1  1  0.30906  0.50361  0.85790  1
 Li  Li2  1  0.69094  0.49639  0.14210  1
 Li  Li3  1  0.85831  0.46719  0.59623  1
 Li  Li4  1  0.14169  0.53281  0.40377  1
 Na  Na1  1  0.25269  0.88297  0.74359  1
 Na  Na2  1  0.74731  0.11703  0.25641  1
 O  O1  1  0.03292  0.81672  0.14929  1
 O  O2  1  0.98762  0.33514  0.17673  1
 O  O3  1  0.01238  0.66486  0.82327  1
 O  O4  1  0.96708  0.18328  0.85071  1
 O  O5  1  0.50342  0.86169  0.28244  1
 O  O6  1  0.41131  0.71294  0.51557  1
 O  O7  1  0.20034  0.37956  0.59712  1
 O  O8  1  0.49658  0.13831  0.71756  1
 O  O9  1  0.72416  0.93488  0.89371  1
 O  O10  1  0.80206  0.93220  0.60601  1
 O  O11  1  0.64300  0.62302  0.94559  1
 O  O12  1  0.35700  0.37698  0.05441  1
 O  O13  1  0.79966  0.62044  0.40288  1
 O  O14  1  0.19794  0.06780  0.39399  1
 O  O15  1  0.27584  0.06512  0.10629  1
 O  O16  1  0.58869  0.28706  0.48443  1
 P  P1  1  0.62176  0.77220  0.45260  1
 P  P2  1  0.37824  0.22780  0.54740  1
 P  P3  1  0.85349  0.74941  0.94596  1
 P  P4  1  0.14651  0.25059  0.05404  1
