CIF file written using JARVIS-Tools package.
data_Pb4SeBr6
_symmetry_space_group_name_H-M  'Cm'
_cell_length_a       4.37303
_cell_length_b       9.84106
_cell_length_c       9.41197
_cell_angle_alpha    62.1065
_cell_angle_beta     76.5695
_cell_angle_gamma    77.1621

_symmetry_Int_Tables_number  8
_chemical_formula_structural  Pb4SeBr6
_chemical_formula_sum  Pb4SeBr6
_cell_volume  345.1487729919619
_cell_formula_units_Z  1
loop_
  _symmetry_equiv_pos_site_id
 _symmetry_equiv_pos_as_xyz
 1  'x, y, z'
loop_
 _atom_site_type_symbol
 _atom_site_label
 _atom_site_symmetry_multiplicity
 _atom_site_fract_x
 _atom_site_fract_y
 _atom_site_fract_z
 _atom_site_fract_occupancy
 Br  Br1  1  0.36356  0.09039  0.17961  1
 Br  Br2  1  0.63630  0.84405  0.88037  1
 Br  Br3  1  0.10777  0.18382  0.59756  1
 Br  Br4  1  0.87511  0.42372  0.82306  1
 Br  Br5  1  0.31382  0.77085  0.59841  1
 Br  Br6  1  0.69406  0.37211  0.23681  1
 Pb  Pb1  1  -0.00862  0.00896  0.00533  1
 Pb  Pb2  1  0.23051  0.54713  0.98888  1
 Pb  Pb3  1  0.50042  0.53061  0.46571  1
 Pb  Pb4  1  0.73858  0.01960  0.50010  1
 Se  Se1  1  0.02709  0.69045  0.25246  1
