CIF file written using JARVIS-Tools package.
data_FeHO2
_symmetry_space_group_name_H-M  'Cmcm'
_cell_length_a       5.91592
_cell_length_b       5.91592
_cell_length_c       3.8136
_cell_angle_alpha    90
_cell_angle_beta     90
_cell_angle_gamma    27.6837

_symmetry_Int_Tables_number  63
_chemical_formula_structural  FeHO2
_chemical_formula_sum  Fe2H2O4
_cell_volume  62.00816661102094
_cell_formula_units_Z  2
loop_
  _symmetry_equiv_pos_site_id
 _symmetry_equiv_pos_as_xyz
 1  'x, y, z'
loop_
 _atom_site_type_symbol
 _atom_site_label
 _atom_site_symmetry_multiplicity
 _atom_site_fract_x
 _atom_site_fract_y
 _atom_site_fract_z
 _atom_site_fract_occupancy
 Fe  Fe1  1  0.32202  0.32202  0.25000  1
 Fe  Fe2  1  0.67798  0.67798  0.75000  1
 H  H1  1  0.00000  0.00000  0.50000  1
 H  H2  1  0.00000  0.00000  0.00000  1
 O  O1  1  0.70580  0.70580  0.25000  1
 O  O2  1  0.29420  0.29420  0.75000  1
 O  O3  1  0.93503  0.93503  0.25000  1
 O  O4  1  0.06497  0.06497  0.75000  1
