CIF file written using JARVIS-Tools package.
data_HfSe3
_symmetry_space_group_name_H-M  'P2_1/m'
_cell_length_a       5.43106
_cell_length_b       3.73606
_cell_length_c       9.50374
_cell_angle_alpha    90
_cell_angle_beta     97.5019
_cell_angle_gamma    90

_symmetry_Int_Tables_number  11
_chemical_formula_structural  HfSe3
_chemical_formula_sum  Hf2Se6
_cell_volume  191.1875913376828
_cell_formula_units_Z  2
loop_
  _symmetry_equiv_pos_site_id
 _symmetry_equiv_pos_as_xyz
 1  'x, y, z'
loop_
 _atom_site_type_symbol
 _atom_site_label
 _atom_site_symmetry_multiplicity
 _atom_site_fract_x
 _atom_site_fract_y
 _atom_site_fract_z
 _atom_site_fract_occupancy
 Hf  Hf1  1  0.28548  0.75000  0.65702  1
 Hf  Hf2  1  0.71452  0.25000  0.34298  1
 Se  Se1  1  0.45191  0.75000  0.17467  1
 Se  Se2  1  0.54809  0.25000  0.82533  1
 Se  Se3  1  0.89236  0.75000  0.16946  1
 Se  Se4  1  0.10764  0.25000  0.83054  1
 Se  Se5  1  0.76260  0.75000  0.55324  1
 Se  Se6  1  0.23740  0.25000  0.44676  1
