CIF file written using JARVIS-Tools package.
data_NaNO3
_symmetry_space_group_name_H-M  'R-3c'
_cell_length_a       6.16945
_cell_length_b       6.16945
_cell_length_c       6.16945
_cell_angle_alpha    49.0329
_cell_angle_beta     49.0329
_cell_angle_gamma    49.0329

_symmetry_Int_Tables_number  167
_chemical_formula_structural  NaNO3
_chemical_formula_sum  Na2N2O6
_cell_volume  122.9401004960085
_cell_formula_units_Z  2
loop_
  _symmetry_equiv_pos_site_id
 _symmetry_equiv_pos_as_xyz
 1  'x, y, z'
loop_
 _atom_site_type_symbol
 _atom_site_label
 _atom_site_symmetry_multiplicity
 _atom_site_fract_x
 _atom_site_fract_y
 _atom_site_fract_z
 _atom_site_fract_occupancy
 N  N1  1  0.75000  0.75000  0.75000  1
 N  N2  1  0.25000  0.25000  0.25000  1
 Na  Na1  1  0.50000  0.50000  0.50000  1
 Na  Na2  1  0.00000  0.00000  0.00000  1
 O  O1  1  0.75000  0.50262  -0.00262  1
 O  O2  1  -0.00262  0.75000  0.50262  1
 O  O3  1  0.49738  0.00262  0.25000  1
 O  O4  1  0.25000  0.49738  0.00262  1
 O  O5  1  0.00262  0.25000  0.49738  1
 O  O6  1  0.50262  -0.00262  0.75000  1
