CIF file written using JARVIS-Tools package.
data_LiMn4O8
_symmetry_space_group_name_H-M  'Cm'
_cell_length_a       2.88154
_cell_length_b       7.0796
_cell_length_c       6.82062
_cell_angle_alpha    84.4806
_cell_angle_beta     102.196
_cell_angle_gamma    101.741

_symmetry_Int_Tables_number  8
_chemical_formula_structural  LiMn4O8
_chemical_formula_sum  LiMn4O8
_cell_volume  132.9502414201539
_cell_formula_units_Z  1
loop_
  _symmetry_equiv_pos_site_id
 _symmetry_equiv_pos_as_xyz
 1  'x, y, z'
loop_
 _atom_site_type_symbol
 _atom_site_label
 _atom_site_symmetry_multiplicity
 _atom_site_fract_x
 _atom_site_fract_y
 _atom_site_fract_z
 _atom_site_fract_occupancy
 Li  Li1  1  -0.01687  -0.05791  -0.04128  1
 Mn  Mn1  1  0.39239  0.53395  0.18524  1
 Mn  Mn2  1  0.20255  0.82486  0.51469  1
 Mn  Mn3  1  0.87075  0.18513  0.49079  1
 Mn  Mn4  1  0.68080  0.47476  0.82126  1
 O  O1  1  0.87888  0.66248  0.02974  1
 O  O2  1  0.58167  0.73788  0.35990  1
 O  O3  1  0.83666  0.94546  0.66229  1
 O  O4  1  0.89447  0.40591  0.31742  1
 O  O5  1  0.18063  0.60554  0.69017  1
 O  O6  1  0.24019  0.06383  0.35099  1
 O  O7  1  0.49280  0.27357  0.64646  1
 O  O8  1  0.19761  0.35418  0.97542  1
