CIF file written using JARVIS-Tools package.
data_CdI2
_symmetry_space_group_name_H-M  'P3m1'
_cell_length_a       4.28654
_cell_length_b       4.28654
_cell_length_c       41.2676
_cell_angle_alpha    90
_cell_angle_beta     90
_cell_angle_gamma    120

_symmetry_Int_Tables_number  156
_chemical_formula_structural  CdI2
_chemical_formula_sum  Cd6I2
_cell_volume  656.6790757868476
_cell_formula_units_Z  6
loop_
  _symmetry_equiv_pos_site_id
 _symmetry_equiv_pos_as_xyz
 1  'x, y, z'
loop_
 _atom_site_type_symbol
 _atom_site_label
 _atom_site_symmetry_multiplicity
 _atom_site_fract_x
 _atom_site_fract_y
 _atom_site_fract_z
 _atom_site_fract_occupancy
 Cd  Cd1  1  0.33333  0.66667  0.87496  1
 Cd  Cd2  1  0.33333  0.66667  0.70836  1
 Cd  Cd3  1  0.66667  0.33333  0.04168  1
 Cd  Cd4  1  0.33333  0.66667  0.37497  1
 Cd  Cd5  1  0.33333  0.66667  0.54166  1
 Cd  Cd6  1  0.66667  0.33333  0.20831  1
 I  I1  1  0.33333  0.66667  0.08368  1
 I  I2  1  0.00000  0.00000  0.16629  1
 I  I3  1  0.33333  0.66667  0.25031  1
 I  I4  1  0.00000  0.00000  0.33293  1
 I  I5  1  0.00000  0.00000  0.66633  1
 I  I6  1  0.66667  0.33333  0.58368  1
 I  I7  1  0.00000  0.00000  -0.00036  1
 I  I8  1  0.66667  0.33333  0.91697  1
 I  I9  1  0.66667  0.33333  0.75036  1
 I  I10  1  0.00000  0.00000  0.83295  1
 I  I11  1  0.66667  0.33333  0.41697  1
 I  I12  1  0.00000  0.00000  0.49964  1
