CIF file written using JARVIS-Tools package.
data_NaMnAs
_symmetry_space_group_name_H-M  'P4/nmm'
_cell_length_a       3.85812
_cell_length_b       3.85812
_cell_length_c       7.2554
_cell_angle_alpha    90
_cell_angle_beta     90
_cell_angle_gamma    90

_symmetry_Int_Tables_number  129
_chemical_formula_structural  NaMnAs
_chemical_formula_sum  Na2Mn2As2
_cell_volume  107.99724929877397
_cell_formula_units_Z  2
loop_
  _symmetry_equiv_pos_site_id
 _symmetry_equiv_pos_as_xyz
 1  'x, y, z'
loop_
 _atom_site_type_symbol
 _atom_site_label
 _atom_site_symmetry_multiplicity
 _atom_site_fract_x
 _atom_site_fract_y
 _atom_site_fract_z
 _atom_site_fract_occupancy
 As  As1  1  0.00000  0.50000  0.20501  1
 As  As2  1  0.50000  0.00000  0.79499  1
 Mn  Mn1  1  0.00000  0.00000  0.00000  1
 Mn  Mn2  1  0.50000  0.50000  0.00000  1
 Na  Na1  1  0.00000  0.50000  0.64431  1
 Na  Na2  1  0.50000  0.00000  0.35569  1
