CIF file written using JARVIS-Tools package.
data_Li2NiP4O12
_symmetry_space_group_name_H-M  'P-1'
_cell_length_a       5.11118
_cell_length_b       6.85206
_cell_length_c       7.07955
_cell_angle_alpha    107.604
_cell_angle_beta     95.4135
_cell_angle_gamma    107.08

_symmetry_Int_Tables_number  2
_chemical_formula_structural  Li2NiP4O12
_chemical_formula_sum  Li2NiP4O2
_cell_volume  221.29376413534035
_cell_formula_units_Z  1
loop_
  _symmetry_equiv_pos_site_id
 _symmetry_equiv_pos_as_xyz
 1  'x, y, z'
loop_
 _atom_site_type_symbol
 _atom_site_label
 _atom_site_symmetry_multiplicity
 _atom_site_fract_x
 _atom_site_fract_y
 _atom_site_fract_z
 _atom_site_fract_occupancy
 Li  Li1  1  0.66505  0.72645  0.56990  1
 Li  Li2  1  0.33495  0.27355  0.43010  1
 Ni  Ni1  1  0.00000  0.00000  0.00000  1
 O  O1  1  0.59852  0.83345  0.34868  1
 O  O2  1  0.33940  0.63971  0.98551  1
 O  O3  1  0.66060  0.36029  0.01449  1
 O  O4  1  0.06513  0.66019  0.26470  1
 O  O5  1  0.71453  0.00467  0.81379  1
 O  O6  1  0.30391  0.56171  0.60991  1
 O  O7  1  0.69609  0.43829  0.39009  1
 O  O8  1  0.02941  0.26626  0.19931  1
 O  O9  1  0.93487  0.33981  0.73530  1
 O  O10  1  0.28547  0.99533  0.18621  1
 O  O11  1  -0.02941  0.73374  0.80069  1
 O  O12  1  0.40148  0.16655  0.65132  1
 P  P1  1  0.65844  0.20457  0.79133  1
 P  P2  1  0.13911  0.57981  0.77189  1
 P  P3  1  0.86089  0.42019  0.22811  1
 P  P4  1  0.34156  0.79543  0.20867  1
