CIF file written using JARVIS-Tools package.
data_SrUS2
_symmetry_space_group_name_H-M  'I-42d'
_cell_length_a       9.12316
_cell_length_b       9.12315
_cell_length_c       9.12316
_cell_angle_alpha    127.905
_cell_angle_beta     76.7789
_cell_angle_gamma    127.905

_symmetry_Int_Tables_number  122
_chemical_formula_structural  SrUS2
_chemical_formula_sum  Sr4U4S8
_cell_volume  459.05299368355287
_cell_formula_units_Z  4
loop_
  _symmetry_equiv_pos_site_id
 _symmetry_equiv_pos_as_xyz
 1  'x, y, z'
loop_
 _atom_site_type_symbol
 _atom_site_label
 _atom_site_symmetry_multiplicity
 _atom_site_fract_x
 _atom_site_fract_y
 _atom_site_fract_z
 _atom_site_fract_occupancy
 S  S1  1  0.01371  0.70864  0.46900  1
 S  S2  1  0.96900  0.20864  0.51371  1
 S  S3  1  0.30506  0.29136  0.26035  1
 S  S4  1  0.19494  0.45529  0.98629  1
 S  S5  1  0.76035  0.79136  0.80506  1
 S  S6  1  0.48629  0.95529  0.69494  1
 S  S7  1  0.53100  0.04471  0.23965  1
 S  S8  1  0.73965  0.54471  0.03100  1
 Sr  Sr1  1  0.14058  0.89058  0.25000  1
 Sr  Sr2  1  0.25000  0.10942  0.85942  1
 Sr  Sr3  1  0.35942  0.60942  0.75000  1
 Sr  Sr4  1  0.75000  0.39058  0.64058  1
 U  U1  1  0.25000  0.59039  0.34039  1
 U  U2  1  0.75000  0.90961  0.15961  1
 U  U3  1  0.65961  0.40961  0.25000  1
 U  U4  1  0.84039  0.09039  0.75000  1
