CIF file written using JARVIS-Tools package.
data_Ca2HfO4
_symmetry_space_group_name_H-M  'Pbam'
_cell_length_a       3.27048
_cell_length_b       5.72661
_cell_length_c       9.87563
_cell_angle_alpha    90
_cell_angle_beta     90
_cell_angle_gamma    90

_symmetry_Int_Tables_number  55
_chemical_formula_structural  Ca2HfO4
_chemical_formula_sum  Ca4Hf2O8
_cell_volume  184.9581374145051
_cell_formula_units_Z  2
loop_
  _symmetry_equiv_pos_site_id
 _symmetry_equiv_pos_as_xyz
 1  'x, y, z'
loop_
 _atom_site_type_symbol
 _atom_site_label
 _atom_site_symmetry_multiplicity
 _atom_site_fract_x
 _atom_site_fract_y
 _atom_site_fract_z
 _atom_site_fract_occupancy
 Ca  Ca1  1  0.50000  0.06659  0.31971  1
 Ca  Ca2  1  0.50000  0.43341  0.81971  1
 Ca  Ca3  1  0.50000  0.56659  0.18029  1
 Ca  Ca4  1  0.50000  0.93341  0.68029  1
 Hf  Hf1  1  0.00000  0.00000  0.00000  1
 Hf  Hf2  1  0.00000  0.50000  0.50000  1
 O  O1  1  0.00000  0.13752  0.80657  1
 O  O2  1  0.50000  0.22749  0.04439  1
 O  O3  1  0.50000  0.27251  0.54439  1
 O  O4  1  0.00000  0.36248  0.30657  1
 O  O5  1  0.00000  0.63752  0.69343  1
 O  O6  1  0.50000  0.72749  0.45561  1
 O  O7  1  0.50000  0.77251  0.95561  1
 O  O8  1  0.00000  0.86248  0.19343  1
