CIF file written using JARVIS-Tools package.
data_TeMoS
_symmetry_space_group_name_H-M  'P-3m1'
_cell_length_a       3.37926
_cell_length_b       13.4043
_cell_length_c       3.37928
_cell_angle_alpha    90.004
_cell_angle_beta     120
_cell_angle_gamma    89.9965

_symmetry_Int_Tables_number  164
_chemical_formula_structural  TeMoS
_chemical_formula_sum  Te2Mo2S2
_cell_volume  132.5629209320697
_cell_formula_units_Z  2
loop_
  _symmetry_equiv_pos_site_id
 _symmetry_equiv_pos_as_xyz
 1  'x, y, z'
loop_
 _atom_site_type_symbol
 _atom_site_label
 _atom_site_symmetry_multiplicity
 _atom_site_fract_x
 _atom_site_fract_y
 _atom_site_fract_z
 _atom_site_fract_occupancy
 Mo  Mo1  1  0.66679  0.77651  0.33378  1
 Mo  Mo2  1  0.33321  0.22349  0.66622  1
 S  S1  1  0.33344  0.88641  0.66713  1
 S  S2  1  0.66656  0.11359  0.33287  1
 Te  Te1  1  0.66652  0.36587  0.33291  1
 Te  Te2  1  0.33348  0.63413  0.66709  1
