CIF file written using JARVIS-Tools package.
data_Na3AlTe3
_symmetry_space_group_name_H-M  'P2_1/c'
_cell_length_a       7.71844
_cell_length_b       8.04276
_cell_length_c       14.0924
_cell_angle_alpha    90.6285
_cell_angle_beta     90
_cell_angle_gamma    90

_symmetry_Int_Tables_number  14
_chemical_formula_structural  Na3AlTe3
_chemical_formula_sum  Na2Al4Te2
_cell_volume  874.7706486736841
_cell_formula_units_Z  4
loop_
  _symmetry_equiv_pos_site_id
 _symmetry_equiv_pos_as_xyz
 1  'x, y, z'
loop_
 _atom_site_type_symbol
 _atom_site_label
 _atom_site_symmetry_multiplicity
 _atom_site_fract_x
 _atom_site_fract_y
 _atom_site_fract_z
 _atom_site_fract_occupancy
 Al  Al1  1  0.14042  0.41611  0.08312  1
 Al  Al2  1  0.85958  0.58389  0.91688  1
 Al  Al3  1  0.35958  0.91611  0.58312  1
 Al  Al4  1  0.64042  0.08389  0.41688  1
 Na  Na1  1  -0.00124  0.72110  0.40116  1
 Na  Na2  1  0.49876  0.77890  0.09884  1
 Na  Na3  1  0.00124  0.27890  0.59884  1
 Na  Na4  1  0.50124  0.22110  0.90116  1
 Na  Na5  1  0.47979  0.72327  0.77749  1
 Na  Na6  1  0.50034  0.67263  0.39507  1
 Na  Na7  1  0.99966  0.17263  0.89507  1
 Na  Na8  1  0.49966  0.32737  0.60493  1
 Na  Na9  1  0.02021  0.22327  0.27749  1
 Na  Na10  1  0.52021  0.27673  0.22251  1
 Na  Na11  1  0.97979  0.77673  0.72251  1
 Na  Na12  1  0.00034  0.82737  0.10493  1
 Te  Te1  1  0.24058  0.61465  0.57521  1
 Te  Te2  1  0.74058  0.88535  0.92479  1
 Te  Te3  1  0.24111  0.57728  0.23383  1
 Te  Te4  1  0.74111  0.92272  0.26617  1
 Te  Te5  1  0.75889  0.42272  0.76617  1
 Te  Te6  1  0.29070  0.08143  0.42573  1
 Te  Te7  1  0.79070  0.41857  0.07427  1
 Te  Te8  1  0.20930  0.58143  0.92573  1
 Te  Te9  1  0.70930  0.91857  0.57427  1
 Te  Te10  1  0.25942  0.11465  0.07521  1
 Te  Te11  1  0.25889  0.07728  0.73383  1
 Te  Te12  1  0.75942  0.38535  0.42479  1
