CIF file written using JARVIS-Tools package.
data_Li2Mn3O6
_symmetry_space_group_name_H-M  'C2/m'
_cell_length_a       5.02249
_cell_length_b       5.0225
_cell_length_c       5.21208
_cell_angle_alpha    101.928
_cell_angle_beta     101.928
_cell_angle_gamma    115.509

_symmetry_Int_Tables_number  12
_chemical_formula_structural  Li2Mn3O6
_chemical_formula_sum  Li2Mn3O6
_cell_volume  109.39490997609326
_cell_formula_units_Z  1
loop_
  _symmetry_equiv_pos_site_id
 _symmetry_equiv_pos_as_xyz
 1  'x, y, z'
loop_
 _atom_site_type_symbol
 _atom_site_label
 _atom_site_symmetry_multiplicity
 _atom_site_fract_x
 _atom_site_fract_y
 _atom_site_fract_z
 _atom_site_fract_occupancy
 Li  Li1  1  0.50882  0.49118  0.50000  1
 Li  Li2  1  0.15785  0.84215  0.50000  1
 Mn  Mn1  1  -0.00057  0.00057  0.00000  1
 Mn  Mn2  1  0.66724  0.33276  -0.00000  1
 Mn  Mn3  1  0.33333  0.66667  -0.00000  1
 O  O1  1  0.29445  0.28896  0.77075  1
 O  O2  1  0.37222  0.04438  0.22925  1
 O  O3  1  0.08898  0.42231  0.19660  1
 O  O4  1  0.95562  0.62778  0.77075  1
 O  O5  1  0.57769  0.91102  0.80340  1
 O  O6  1  0.71104  0.70555  0.22925  1
