CIF file written using JARVIS-Tools package.
data_AlBiO3
_symmetry_space_group_name_H-M  'Pnma'
_cell_length_a       5.37168
_cell_length_b       5.41114
_cell_length_c       9.40908
_cell_angle_alpha    90
_cell_angle_beta     90
_cell_angle_gamma    90

_symmetry_Int_Tables_number  62
_chemical_formula_structural  AlBiO3
_chemical_formula_sum  Al4Bi4O2
_cell_volume  273.49288412243044
_cell_formula_units_Z  4
loop_
  _symmetry_equiv_pos_site_id
 _symmetry_equiv_pos_as_xyz
 1  'x, y, z'
loop_
 _atom_site_type_symbol
 _atom_site_label
 _atom_site_symmetry_multiplicity
 _atom_site_fract_x
 _atom_site_fract_y
 _atom_site_fract_z
 _atom_site_fract_occupancy
 Al  Al1  1  0.95702  0.02913  0.75000  1
 Al  Al2  1  0.45702  0.47087  0.25000  1
 Al  Al3  1  0.54298  0.52913  0.75000  1
 Al  Al4  1  0.04298  0.97087  0.25000  1
 Bi  Bi1  1  0.00000  0.50000  0.50000  1
 Bi  Bi2  1  0.50000  0.00000  0.50000  1
 Bi  Bi3  1  0.50000  0.00000  0.00000  1
 Bi  Bi4  1  0.00000  0.50000  0.00000  1
 O  O1  1  0.62430  0.36882  0.39922  1
 O  O2  1  0.33545  0.78874  0.25000  1
 O  O3  1  0.87570  0.86882  0.10078  1
 O  O4  1  0.37570  0.63118  0.89922  1
 O  O5  1  0.12430  0.13118  0.60078  1
 O  O6  1  0.16455  0.28874  0.25000  1
 O  O7  1  0.12430  0.13118  0.89922  1
 O  O8  1  0.62430  0.36882  0.10078  1
 O  O9  1  0.37570  0.63118  0.60078  1
 O  O10  1  0.66455  0.21126  0.75000  1
 O  O11  1  0.87570  0.86882  0.39922  1
 O  O12  1  0.83545  0.71126  0.75000  1
