CIF file written using JARVIS-Tools package.
data_DyCuS2
_symmetry_space_group_name_H-M  'Pnma'
_cell_length_a       3.957
_cell_length_b       6.26549
_cell_length_c       13.3989
_cell_angle_alpha    90
_cell_angle_beta     90
_cell_angle_gamma    90

_symmetry_Int_Tables_number  62
_chemical_formula_structural  DyCuS2
_chemical_formula_sum  Dy4Cu4S8
_cell_volume  332.1925481719149
_cell_formula_units_Z  4
loop_
  _symmetry_equiv_pos_site_id
 _symmetry_equiv_pos_as_xyz
 1  'x, y, z'
loop_
 _atom_site_type_symbol
 _atom_site_label
 _atom_site_symmetry_multiplicity
 _atom_site_fract_x
 _atom_site_fract_y
 _atom_site_fract_z
 _atom_site_fract_occupancy
 Cu  Cu1  1  0.25000  0.37656  0.45370  1
 Cu  Cu2  1  0.75000  0.62344  0.54630  1
 Cu  Cu3  1  0.25000  0.12344  0.95370  1
 Cu  Cu4  1  0.75000  0.87656  0.04630  1
 Dy  Dy1  1  0.25000  -0.00039  0.63359  1
 Dy  Dy2  1  0.75000  0.49961  0.86641  1
 Dy  Dy3  1  0.75000  0.00039  0.36641  1
 Dy  Dy4  1  0.25000  0.50039  0.13359  1
 S  S1  1  0.75000  0.24516  0.54037  1
 S  S2  1  0.75000  0.76126  0.70590  1
 S  S3  1  0.25000  0.75484  0.45963  1
 S  S4  1  0.75000  0.25484  0.04037  1
 S  S5  1  0.25000  0.23874  0.29410  1
 S  S6  1  0.25000  0.74516  0.95963  1
 S  S7  1  0.25000  0.26126  0.79410  1
 S  S8  1  0.75000  0.73874  0.20590  1
