CIF file written using JARVIS-Tools package.
data_Hg2BrN
_symmetry_space_group_name_H-M  'P6_3/mmc'
_cell_length_a       6.73248
_cell_length_b       6.73248
_cell_length_c       11.3959
_cell_angle_alpha    90
_cell_angle_beta     90
_cell_angle_gamma    120

_symmetry_Int_Tables_number  194
_chemical_formula_structural  Hg2BrN
_chemical_formula_sum  Hg8Br4N4
_cell_volume  447.33374406018584
_cell_formula_units_Z  4
loop_
  _symmetry_equiv_pos_site_id
 _symmetry_equiv_pos_as_xyz
 1  'x, y, z'
loop_
 _atom_site_type_symbol
 _atom_site_label
 _atom_site_symmetry_multiplicity
 _atom_site_fract_x
 _atom_site_fract_y
 _atom_site_fract_z
 _atom_site_fract_occupancy
 Br  Br1  1  0.00000  0.00000  0.50000  1
 Br  Br2  1  0.33333  0.66667  0.25000  1
 Br  Br3  1  0.00000  0.00000  0.00000  1
 Br  Br4  1  0.66667  0.33333  0.75000  1
 Hg  Hg1  1  0.50000  0.50000  0.50000  1
 Hg  Hg2  1  0.50000  -0.00000  0.00000  1
 Hg  Hg3  1  -0.00000  0.50000  0.00000  1
 Hg  Hg4  1  -0.00000  0.50000  0.50000  1
 Hg  Hg5  1  0.50000  -0.00000  0.50000  1
 Hg  Hg6  1  0.50000  0.50000  0.00000  1
 Hg  Hg7  1  0.66667  0.33333  0.25000  1
 Hg  Hg8  1  0.33333  0.66667  0.75000  1
 N  N1  1  0.33333  0.66667  0.93116  1
 N  N2  1  0.66667  0.33333  0.06884  1
 N  N3  1  0.33333  0.66667  0.56884  1
 N  N4  1  0.66667  0.33333  0.43116  1
