CIF file written using JARVIS-Tools package.
data_BaH2O3
_symmetry_space_group_name_H-M  'P2_1/m'
_cell_length_a       5.36569
_cell_length_b       4.08722
_cell_length_c       6.82009
_cell_angle_alpha    90
_cell_angle_beta     102.714
_cell_angle_gamma    90

_symmetry_Int_Tables_number  11
_chemical_formula_structural  BaH2O3
_chemical_formula_sum  Ba2H4O6
_cell_volume  145.90239414440163
_cell_formula_units_Z  2
loop_
  _symmetry_equiv_pos_site_id
 _symmetry_equiv_pos_as_xyz
 1  'x, y, z'
loop_
 _atom_site_type_symbol
 _atom_site_label
 _atom_site_symmetry_multiplicity
 _atom_site_fract_x
 _atom_site_fract_y
 _atom_site_fract_z
 _atom_site_fract_occupancy
 Ba  Ba1  1  0.85901  0.25000  0.72247  1
 Ba  Ba2  1  0.14099  0.75000  0.27753  1
 H  H1  1  0.62360  0.75000  0.04758  1
 H  H2  1  0.37640  0.25000  -0.04758  1
 H  H3  1  0.40178  0.75000  0.78003  1
 H  H4  1  0.59822  0.25000  0.21997  1
 O  O1  1  0.66956  0.75000  0.43637  1
 O  O2  1  0.33044  0.25000  0.56363  1
 O  O3  1  0.70919  0.75000  0.93496  1
 O  O4  1  0.29081  0.25000  0.06504  1
 O  O5  1  0.21727  0.75000  0.70580  1
 O  O6  1  0.78273  0.25000  0.29420  1
