CIF file written using JARVIS-Tools package.
data_Li2Co3SbO8
_symmetry_space_group_name_H-M  'R-3m'
_cell_length_a       5.76448
_cell_length_b       5.76448
_cell_length_c       5.88762
_cell_angle_alpha    60.6895
_cell_angle_beta     119.311
_cell_angle_gamma    120

_symmetry_Int_Tables_number  166
_chemical_formula_structural  Li2Co3SbO8
_chemical_formula_sum  Li2Co3SbO8
_cell_volume  139.76364911431008
_cell_formula_units_Z  1
loop_
  _symmetry_equiv_pos_site_id
 _symmetry_equiv_pos_as_xyz
 1  'x, y, z'
loop_
 _atom_site_type_symbol
 _atom_site_label
 _atom_site_symmetry_multiplicity
 _atom_site_fract_x
 _atom_site_fract_y
 _atom_site_fract_z
 _atom_site_fract_occupancy
 Co  Co1  1  0.50000  0.50000  0.00000  1
 Co  Co2  1  0.50000  -0.00000  0.00000  1
 Co  Co3  1  -0.00000  0.50000  0.00000  1
 Li  Li1  1  0.87506  0.12494  0.62519  1
 Li  Li2  1  0.12494  0.87506  0.37481  1
 O  O1  1  0.74495  0.71529  0.77460  1
 O  O2  1  0.74495  0.25505  0.77460  1
 O  O3  1  0.26598  0.73402  0.79794  1
 O  O4  1  0.28471  0.25505  0.77460  1
 O  O5  1  0.71529  0.74495  0.22540  1
 O  O6  1  0.73402  0.26598  0.20206  1
 O  O7  1  0.25505  0.74495  0.22540  1
 O  O8  1  0.25505  0.28471  0.22540  1
 Sb  Sb1  1  0.50000  0.50000  0.50000  1
