CIF file written using JARVIS-Tools package.
data_NdLuSe3
_symmetry_space_group_name_H-M  'Cmcm'
_cell_length_a       4.01488
_cell_length_b       6.82688
_cell_length_c       9.92247
_cell_angle_alpha    90
_cell_angle_beta     90
_cell_angle_gamma    107.101

_symmetry_Int_Tables_number  63
_chemical_formula_structural  NdLuSe3
_chemical_formula_sum  Nd2Lu2Se6
_cell_volume  259.94211058170464
_cell_formula_units_Z  2
loop_
  _symmetry_equiv_pos_site_id
 _symmetry_equiv_pos_as_xyz
 1  'x, y, z'
loop_
 _atom_site_type_symbol
 _atom_site_label
 _atom_site_symmetry_multiplicity
 _atom_site_fract_x
 _atom_site_fract_y
 _atom_site_fract_z
 _atom_site_fract_occupancy
 Lu  Lu1  1  0.00000  0.00000  0.00000  1
 Lu  Lu2  1  0.00000  0.00000  0.50000  1
 Nd  Nd1  1  0.74795  0.49590  0.75000  1
 Nd  Nd2  1  0.25205  0.50410  0.25000  1
 Se  Se1  1  0.91494  0.82989  0.25000  1
 Se  Se2  1  0.08506  0.17011  0.75000  1
 Se  Se3  1  0.35678  0.71356  0.56204  1
 Se  Se4  1  0.64322  0.28644  0.43796  1
 Se  Se5  1  0.35678  0.71356  0.93796  1
 Se  Se6  1  0.64322  0.28644  0.06204  1
