CIF file written using JARVIS-Tools package.
data_SmTlO2
_symmetry_space_group_name_H-M  'R-3m'
_cell_length_a       3.59778
_cell_length_b       6.76332
_cell_length_c       3.59778
_cell_angle_alpha    105.425
_cell_angle_beta     60
_cell_angle_gamma    105.425

_symmetry_Int_Tables_number  166
_chemical_formula_structural  SmTlO2
_chemical_formula_sum  SmTlO2
_cell_volume  72.15151379064595
_cell_formula_units_Z  1
loop_
  _symmetry_equiv_pos_site_id
 _symmetry_equiv_pos_as_xyz
 1  'x, y, z'
loop_
 _atom_site_type_symbol
 _atom_site_label
 _atom_site_symmetry_multiplicity
 _atom_site_fract_x
 _atom_site_fract_y
 _atom_site_fract_z
 _atom_site_fract_occupancy
 O  O1  1  0.22599  0.67797  0.22599  1
 O  O2  1  0.77401  0.32203  0.77401  1
 Sm  Sm1  1  0.50000  0.50000  0.50000  1
 Tl  Tl1  1  0.00000  0.00000  0.00000  1
