CIF file written using JARVIS-Tools package.
data_Mg2Sb3O8
_symmetry_space_group_name_H-M  'C2/m'
_cell_length_a       5.64772
_cell_length_b       6.29687
_cell_length_c       6.00847
_cell_angle_alpha    121.601
_cell_angle_beta     101.533
_cell_angle_gamma    90

_symmetry_Int_Tables_number  12
_chemical_formula_structural  Mg2Sb3O8
_chemical_formula_sum  Mg2Sb3O8
_cell_volume  176.90917773542807
_cell_formula_units_Z  1
loop_
  _symmetry_equiv_pos_site_id
 _symmetry_equiv_pos_as_xyz
 1  'x, y, z'
loop_
 _atom_site_type_symbol
 _atom_site_label
 _atom_site_symmetry_multiplicity
 _atom_site_fract_x
 _atom_site_fract_y
 _atom_site_fract_z
 _atom_site_fract_occupancy
 Mg  Mg1  1  0.58545  0.70600  0.41200  1
 Mg  Mg2  1  0.41455  0.29400  0.58800  1
 O  O1  1  0.14118  0.40165  0.80330  1
 O  O2  1  0.85882  0.59835  0.19670  1
 O  O3  1  0.09867  0.89390  0.78781  1
 O  O4  1  0.90133  0.10610  0.21219  1
 O  O5  1  0.34490  0.37281  0.26681  1
 O  O6  1  0.34490  0.89400  0.26681  1
 O  O7  1  0.65510  0.10599  0.73319  1
 O  O8  1  0.65510  0.62719  0.73319  1
 Sb  Sb1  1  0.50000  1.00000  0.00000  1
 Sb  Sb2  1  1.00000  0.74153  0.00000  1
 Sb  Sb3  1  1.00000  0.25847  -0.00000  1
