CIF file written using JARVIS-Tools package.
data_GeBi4Te7
_symmetry_space_group_name_H-M  'P-3m1'
_cell_length_a       4.4175
_cell_length_b       4.4175
_cell_length_c       24.3659
_cell_angle_alpha    90
_cell_angle_beta     90
_cell_angle_gamma    120

_symmetry_Int_Tables_number  164
_chemical_formula_structural  GeBi4Te7
_chemical_formula_sum  GeBi4Te7
_cell_volume  411.7820473024896
_cell_formula_units_Z  1
loop_
  _symmetry_equiv_pos_site_id
 _symmetry_equiv_pos_as_xyz
 1  'x, y, z'
loop_
 _atom_site_type_symbol
 _atom_site_label
 _atom_site_symmetry_multiplicity
 _atom_site_fract_x
 _atom_site_fract_y
 _atom_site_fract_z
 _atom_site_fract_occupancy
 Bi  Bi1  1  0.33333  0.66667  0.84563  1
 Bi  Bi2  1  0.66667  0.33333  0.41510  1
 Bi  Bi3  1  0.33333  0.66667  0.58490  1
 Bi  Bi4  1  0.66667  0.33333  0.15437  1
 Ge  Ge1  1  0.00000  0.00000  0.00000  1
 Te  Te1  1  0.66667  0.33333  0.93159  1
 Te  Te2  1  0.00000  0.00000  0.50000  1
 Te  Te3  1  0.00000  0.00000  0.77393  1
 Te  Te4  1  0.00000  0.00000  0.22607  1
 Te  Te5  1  0.33333  0.66667  0.06841  1
 Te  Te6  1  0.33333  0.66667  0.34334  1
 Te  Te7  1  0.66667  0.33333  0.65666  1
