CIF file written using JARVIS-Tools package.
data_Na6S2ClO8F
_symmetry_space_group_name_H-M  'Fm-3m'
_cell_length_a       7.12451
_cell_length_b       7.12451
_cell_length_c       7.12452
_cell_angle_alpha    60
_cell_angle_beta     60
_cell_angle_gamma    60

_symmetry_Int_Tables_number  225
_chemical_formula_structural  Na6S2ClO8F
_chemical_formula_sum  Na6S2ClO8F
_cell_volume  255.71191653688274
_cell_formula_units_Z  1
loop_
  _symmetry_equiv_pos_site_id
 _symmetry_equiv_pos_as_xyz
 1  'x, y, z'
loop_
 _atom_site_type_symbol
 _atom_site_label
 _atom_site_symmetry_multiplicity
 _atom_site_fract_x
 _atom_site_fract_y
 _atom_site_fract_z
 _atom_site_fract_occupancy
 Cl  Cl1  1  0.50000  0.50000  0.50000  1
 F  F1  1  0.00000  0.00000  0.00000  1
 Na  Na1  1  0.77740  0.77740  0.22260  1
 Na  Na2  1  0.77740  0.22260  0.22260  1
 Na  Na3  1  0.77740  0.22260  0.77740  1
 Na  Na4  1  0.22260  0.22260  0.77740  1
 Na  Na5  1  0.22260  0.77740  0.77740  1
 Na  Na6  1  0.22260  0.77740  0.22260  1
 O  O1  1  0.16478  0.16478  0.16478  1
 O  O2  1  0.83522  0.83522  0.83522  1
 O  O3  1  0.83522  0.83522  0.49433  1
 O  O4  1  0.49433  0.83522  0.83522  1
 O  O5  1  0.83522  0.49433  0.83522  1
 O  O6  1  0.50567  0.16478  0.16478  1
 O  O7  1  0.16478  0.50567  0.16478  1
 O  O8  1  0.16478  0.16478  0.50567  1
 S  S1  1  0.25000  0.25000  0.25000  1
 S  S2  1  0.75000  0.75000  0.75000  1
