CIF file written using JARVIS-Tools package.
data_PrSi2Mo2C
_symmetry_space_group_name_H-M  'P4/mmm'
_cell_length_a       4.24181
_cell_length_b       4.24181
_cell_length_c       5.47336
_cell_angle_alpha    90
_cell_angle_beta     90
_cell_angle_gamma    90

_symmetry_Int_Tables_number  123
_chemical_formula_structural  PrSi2Mo2C
_chemical_formula_sum  PrSi2Mo2C
_cell_volume  98.482065041615
_cell_formula_units_Z  1
loop_
  _symmetry_equiv_pos_site_id
 _symmetry_equiv_pos_as_xyz
 1  'x, y, z'
loop_
 _atom_site_type_symbol
 _atom_site_label
 _atom_site_symmetry_multiplicity
 _atom_site_fract_x
 _atom_site_fract_y
 _atom_site_fract_z
 _atom_site_fract_occupancy
 C  C1  1  0.00000  0.00000  0.00000  1
 Mo  Mo1  1  0.50000  0.00000  0.00000  1
 Mo  Mo2  1  0.00000  0.50000  0.00000  1
 Pr  Pr1  1  0.00000  0.00000  0.50000  1
 Si  Si1  1  0.50000  0.50000  0.72170  1
 Si  Si2  1  0.50000  0.50000  0.27830  1
