CIF file written using JARVIS-Tools package.
data_Li4Co3Ni5O16
_symmetry_space_group_name_H-M  'Cm'
_cell_length_a       5.63173
_cell_length_b       5.6317
_cell_length_c       9.15194
_cell_angle_alpha    89.8289
_cell_angle_beta     90.1736
_cell_angle_gamma    119.919

_symmetry_Int_Tables_number  8
_chemical_formula_structural  Li4Co3Ni5O16
_chemical_formula_sum  Li4Co3Ni5O6
_cell_volume  251.58148575818345
_cell_formula_units_Z  1
loop_
  _symmetry_equiv_pos_site_id
 _symmetry_equiv_pos_as_xyz
 1  'x, y, z'
loop_
 _atom_site_type_symbol
 _atom_site_label
 _atom_site_symmetry_multiplicity
 _atom_site_fract_x
 _atom_site_fract_y
 _atom_site_fract_z
 _atom_site_fract_occupancy
 Co  Co1  1  0.65987  0.82928  0.78711  1
 Co  Co2  1  0.17071  0.34011  0.78711  1
 Co  Co3  1  0.82972  0.17034  0.28627  1
 Li  Li1  1  0.33129  0.66875  0.10032  1
 Li  Li2  1  0.99985  0.00012  0.00385  1
 Li  Li3  1  0.00290  -0.00283  0.50456  1
 Li  Li4  1  0.66626  0.33375  0.60107  1
 Ni  Ni1  1  0.33431  0.66572  0.51225  1
 Ni  Ni2  1  0.16889  0.83109  0.78639  1
 Ni  Ni3  1  0.66706  0.33295  0.01062  1
 Ni  Ni4  1  0.82959  0.66206  0.28572  1
 Ni  Ni5  1  0.33800  0.17047  0.28572  1
 O  O1  1  0.67701  0.83901  0.40250  1
 O  O2  1  0.51844  0.48162  0.15724  1
 O  O3  1  0.33273  0.66727  0.89057  1
 O  O4  1  -0.00063  0.00060  0.69254  1
 O  O5  1  -0.00062  0.00068  0.19274  1
 O  O6  1  0.16106  0.32305  0.40250  1
 O  O7  1  0.48177  0.51820  0.66431  1
 O  O8  1  0.66602  0.33404  0.38894  1
 O  O9  1  0.83798  0.16201  0.89982  1
 O  O10  1  0.16494  0.83512  0.40090  1
 O  O11  1  0.96100  0.47953  0.16117  1
 O  O12  1  0.52052  0.03905  0.16117  1
 O  O13  1  0.48178  0.96120  0.66105  1
 O  O14  1  0.83654  0.67547  0.90233  1
 O  O15  1  0.03880  0.51821  0.66105  1
 O  O16  1  0.32451  0.16344  0.90234  1
