CIF file written using JARVIS-Tools package.
data_RbSc5Te8
_symmetry_space_group_name_H-M  'C2/m'
_cell_length_a       4.15674
_cell_length_b       10.2456
_cell_length_c       10.8818
_cell_angle_alpha    103.94
_cell_angle_beta     101.011
_cell_angle_gamma    90

_symmetry_Int_Tables_number  12
_chemical_formula_structural  RbSc5Te8
_chemical_formula_sum  RbSc5Te8
_cell_volume  440.9934195366503
_cell_formula_units_Z  1
loop_
  _symmetry_equiv_pos_site_id
 _symmetry_equiv_pos_as_xyz
 1  'x, y, z'
loop_
 _atom_site_type_symbol
 _atom_site_label
 _atom_site_symmetry_multiplicity
 _atom_site_fract_x
 _atom_site_fract_y
 _atom_site_fract_z
 _atom_site_fract_occupancy
 Rb  Rb1  1  0.00000  0.00000  0.00000  1
 Sc  Sc1  1  0.20515  0.84537  0.41030  1
 Sc  Sc2  1  0.50000  0.50000  -0.00000  1
 Sc  Sc3  1  0.84419  0.52257  0.68839  1
 Sc  Sc4  1  0.15581  0.47743  0.31161  1
 Sc  Sc5  1  0.79485  0.15463  0.58970  1
 Te  Te1  1  0.92543  0.33301  0.85085  1
 Te  Te2  1  0.07457  0.66699  0.14915  1
 Te  Te3  1  0.58475  0.31346  0.16951  1
 Te  Te4  1  0.41525  0.68654  0.83049  1
 Te  Te5  1  0.66367  0.99924  0.32735  1
 Te  Te6  1  0.33633  0.00076  0.67265  1
 Te  Te7  1  0.73800  0.65931  0.47599  1
 Te  Te8  1  0.26200  0.34069  0.52401  1
