CIF file written using JARVIS-Tools package.
data_Mn2Fe3Co3O16
_symmetry_space_group_name_H-M  'Cm'
_cell_length_a       5.57964
_cell_length_b       5.60406
_cell_length_c       8.61265
_cell_angle_alpha    90.0145
_cell_angle_beta     90.0012
_cell_angle_gamma    119.855

_symmetry_Int_Tables_number  8
_chemical_formula_structural  Mn2Fe3Co3O16
_chemical_formula_sum  Mn2Fe3Co3O6
_cell_volume  233.56450459965163
_cell_formula_units_Z  1
loop_
  _symmetry_equiv_pos_site_id
 _symmetry_equiv_pos_as_xyz
 1  'x, y, z'
loop_
 _atom_site_type_symbol
 _atom_site_label
 _atom_site_symmetry_multiplicity
 _atom_site_fract_x
 _atom_site_fract_y
 _atom_site_fract_z
 _atom_site_fract_occupancy
 Co  Co1  1  0.33629  0.16979  0.20861  1
 Co  Co2  1  0.83348  0.16979  0.20862  1
 Co  Co3  1  0.16704  0.33410  0.70884  1
 Fe  Fe1  1  0.83425  0.66852  0.21040  1
 Fe  Fe2  1  0.16851  0.83295  0.71228  1
 Fe  Fe3  1  0.66442  0.83295  0.71229  1
 Mn  Mn1  1  0.66388  0.32778  0.48689  1
 Mn  Mn2  1  0.33181  0.66364  0.99101  1
 O  O1  1  0.33236  0.16452  0.60042  1
 O  O2  1  0.52079  0.04159  0.33751  1
 O  O3  1  0.67006  0.34014  0.09965  1
 O  O4  1  0.48246  0.96494  0.84235  1
 O  O5  1  -0.00055  -0.00108  0.82033  1
 O  O6  1  0.83214  0.16451  0.60042  1
 O  O7  1  -0.00052  -0.00104  0.31754  1
 O  O8  1  0.03967  0.52004  0.83858  1
 O  O9  1  0.16682  0.33366  0.10020  1
 O  O10  1  0.83386  0.66775  0.59894  1
 O  O11  1  0.52113  0.48027  0.34003  1
 O  O12  1  0.48036  0.52003  0.83859  1
 O  O13  1  0.33437  0.66875  0.60003  1
 O  O14  1  0.16611  0.82807  0.10109  1
 O  O15  1  0.95911  0.48026  0.34004  1
 O  O16  1  0.66194  0.82807  0.10109  1
