CIF file written using JARVIS-Tools package.
data_Li2Cr3NiO8
_symmetry_space_group_name_H-M  'R-3m'
_cell_length_a       5.77813
_cell_length_b       5.77812
_cell_length_c       5.77813
_cell_angle_alpha    60.3336
_cell_angle_beta     60.3336
_cell_angle_gamma    60.3336

_symmetry_Int_Tables_number  166
_chemical_formula_structural  Li2Cr3NiO8
_chemical_formula_sum  Li2Cr3NiO8
_cell_volume  137.43922784803027
_cell_formula_units_Z  1
loop_
  _symmetry_equiv_pos_site_id
 _symmetry_equiv_pos_as_xyz
 1  'x, y, z'
loop_
 _atom_site_type_symbol
 _atom_site_label
 _atom_site_symmetry_multiplicity
 _atom_site_fract_x
 _atom_site_fract_y
 _atom_site_fract_z
 _atom_site_fract_occupancy
 Cr  Cr1  1  -0.00000  0.50000  0.50000  1
 Cr  Cr2  1  0.50000  -0.00000  0.50000  1
 Cr  Cr3  1  0.50000  0.50000  -0.00000  1
 Li  Li1  1  0.12611  0.12611  0.12611  1
 Li  Li2  1  0.87389  0.87389  0.87389  1
 Ni  Ni1  1  0.50000  0.50000  0.50000  1
 O  O1  1  0.26205  0.26205  0.26205  1
 O  O2  1  0.26119  0.26119  0.71253  1
 O  O3  1  0.26119  0.71253  0.26119  1
 O  O4  1  0.71253  0.26119  0.26119  1
 O  O5  1  0.28747  0.73881  0.73881  1
 O  O6  1  0.73881  0.28747  0.73881  1
 O  O7  1  0.73881  0.73881  0.28747  1
 O  O8  1  0.73795  0.73795  0.73795  1
