CIF file written using JARVIS-Tools package.
data_Ag3SI
_symmetry_space_group_name_H-M  'Pm'
_cell_length_a       5.09999
_cell_length_b       4.72553
_cell_length_c       4.87825
_cell_angle_alpha    90
_cell_angle_beta     92.1226
_cell_angle_gamma    90

_symmetry_Int_Tables_number  6
_chemical_formula_structural  Ag3SI
_chemical_formula_sum  Ag3SI
_cell_volume  117.4856342919731
_cell_formula_units_Z  1
loop_
  _symmetry_equiv_pos_site_id
 _symmetry_equiv_pos_as_xyz
 1  'x, y, z'
loop_
 _atom_site_type_symbol
 _atom_site_label
 _atom_site_symmetry_multiplicity
 _atom_site_fract_x
 _atom_site_fract_y
 _atom_site_fract_z
 _atom_site_fract_occupancy
 Ag  Ag1  1  0.45950  0.00000  0.04268  1
 Ag  Ag2  1  0.06621  0.50000  0.88650  1
 Ag  Ag3  1  0.12084  0.00000  0.53700  1
 I  I1  1  0.53069  0.50000  0.49457  1
 S  S1  1  -0.04714  0.00000  0.03926  1
