CIF file written using JARVIS-Tools package.
data_RbFeMo2O8
_symmetry_space_group_name_H-M  'P-3m1'
_cell_length_a       5.59846
_cell_length_b       5.59846
_cell_length_c       7.31099
_cell_angle_alpha    90
_cell_angle_beta     90
_cell_angle_gamma    120

_symmetry_Int_Tables_number  164
_chemical_formula_structural  RbFeMo2O8
_chemical_formula_sum  RbFeMo2O8
_cell_volume  198.4471918564472
_cell_formula_units_Z  1
loop_
  _symmetry_equiv_pos_site_id
 _symmetry_equiv_pos_as_xyz
 1  'x, y, z'
loop_
 _atom_site_type_symbol
 _atom_site_label
 _atom_site_symmetry_multiplicity
 _atom_site_fract_x
 _atom_site_fract_y
 _atom_site_fract_z
 _atom_site_fract_occupancy
 Fe  Fe1  1  0.00000  0.00000  0.00000  1
 Mo  Mo1  1  0.33333  0.66667  0.77411  1
 Mo  Mo2  1  0.66667  0.33333  0.22589  1
 O  O1  1  0.84228  0.15772  0.15007  1
 O  O2  1  0.31545  0.15772  0.15007  1
 O  O3  1  0.84228  0.68455  0.15007  1
 O  O4  1  0.15772  0.31545  0.84993  1
 O  O5  1  0.33333  0.66667  0.53620  1
 O  O6  1  0.66667  0.33333  0.46380  1
 O  O7  1  0.68455  0.84228  0.84993  1
 O  O8  1  0.15772  0.84228  0.84993  1
 Rb  Rb1  1  0.00000  0.00000  0.50000  1
