CIF file written using JARVIS-Tools package.
data_LiFe2F7
_symmetry_space_group_name_H-M  'P2/c'
_cell_length_a       5.22646
_cell_length_b       4.97269
_cell_length_c       9.26159
_cell_angle_alpha    90
_cell_angle_beta     97.0505
_cell_angle_gamma    90

_symmetry_Int_Tables_number  13
_chemical_formula_structural  LiFe2F7
_chemical_formula_sum  Li2Fe4F4
_cell_volume  238.88450606268248
_cell_formula_units_Z  2
loop_
  _symmetry_equiv_pos_site_id
 _symmetry_equiv_pos_as_xyz
 1  'x, y, z'
loop_
 _atom_site_type_symbol
 _atom_site_label
 _atom_site_symmetry_multiplicity
 _atom_site_fract_x
 _atom_site_fract_y
 _atom_site_fract_z
 _atom_site_fract_occupancy
 F  F1  1  0.64931  0.89330  0.62032  1
 F  F2  1  -0.00000  0.58047  0.75000  1
 F  F3  1  -0.00000  0.41953  0.25000  1
 F  F4  1  0.12566  0.07630  0.61607  1
 F  F5  1  0.87434  0.07630  0.88393  1
 F  F6  1  0.22684  0.57062  0.50569  1
 F  F7  1  0.12566  0.92370  0.11607  1
 F  F8  1  0.35069  0.89330  0.87968  1
 F  F9  1  0.35069  0.10670  0.37968  1
 F  F10  1  0.87434  0.92370  0.38393  1
 F  F11  1  0.64931  0.10670  0.12032  1
 F  F12  1  0.77316  0.57062  0.99431  1
 F  F13  1  0.77316  0.42938  0.49431  1
 F  F14  1  0.22684  0.42938  0.00569  1
 Fe  Fe1  1  0.93915  0.25162  0.06822  1
 Fe  Fe2  1  0.93915  0.74838  0.56822  1
 Fe  Fe3  1  0.06085  0.25162  0.43178  1
 Fe  Fe4  1  0.06085  0.74838  0.93178  1
 Li  Li1  1  0.50000  0.91099  0.25000  1
 Li  Li2  1  0.50000  0.08901  0.75000  1
