CIF file written using JARVIS-Tools package.
data_PbI2
_symmetry_space_group_name_H-M  'R-3m'
_cell_length_a       21.3143
_cell_length_b       21.3143
_cell_length_c       21.3143
_cell_angle_alpha    12.3515
_cell_angle_beta     12.3514
_cell_angle_gamma    12.3514

_symmetry_Int_Tables_number  166
_chemical_formula_structural  PbI2
_chemical_formula_sum  Pb3I6
_cell_volume  385.18800506733055
_cell_formula_units_Z  3
loop_
  _symmetry_equiv_pos_site_id
 _symmetry_equiv_pos_as_xyz
 1  'x, y, z'
loop_
 _atom_site_type_symbol
 _atom_site_label
 _atom_site_symmetry_multiplicity
 _atom_site_fract_x
 _atom_site_fract_y
 _atom_site_fract_z
 _atom_site_fract_occupancy
 I  I1  1  0.08133  0.08133  0.08133  1
 I  I2  1  0.30345  0.30345  0.30345  1
 I  I3  1  0.80776  0.80776  0.80776  1
 I  I4  1  0.19224  0.19224  0.19224  1
 I  I5  1  0.91867  0.91867  0.91867  1
 I  I6  1  0.69655  0.69655  0.69655  1
 Pb  Pb1  1  0.00000  0.00000  0.00000  1
 Pb  Pb2  1  0.55546  0.55546  0.55546  1
 Pb  Pb3  1  0.44454  0.44454  0.44454  1
