CIF file written using JARVIS-Tools package.
data_YH3C3O6
_symmetry_space_group_name_H-M  'R3m'
_cell_length_a       6.16232
_cell_length_b       6.16231
_cell_length_c       6.16231
_cell_angle_alpha    115.556
_cell_angle_beta     115.556
_cell_angle_gamma    115.556

_symmetry_Int_Tables_number  160
_chemical_formula_structural  YH3C3O6
_chemical_formula_sum  YH3C3O6
_cell_volume  124.07098326262414
_cell_formula_units_Z  1
loop_
  _symmetry_equiv_pos_site_id
 _symmetry_equiv_pos_as_xyz
 1  'x, y, z'
loop_
 _atom_site_type_symbol
 _atom_site_label
 _atom_site_symmetry_multiplicity
 _atom_site_fract_x
 _atom_site_fract_y
 _atom_site_fract_z
 _atom_site_fract_occupancy
 C  C1  1  0.14962  0.61117  0.61117  1
 C  C2  1  0.61117  0.14962  0.61117  1
 C  C3  1  0.61117  0.61117  0.14962  1
 H  H1  1  0.36280  0.36280  0.84680  1
 H  H2  1  0.36280  0.84680  0.36280  1
 H  H3  1  0.84680  0.36280  0.36280  1
 O  O1  1  0.34241  0.59469  0.59469  1
 O  O2  1  0.89043  0.28391  0.89043  1
 O  O3  1  0.89043  0.89043  0.28391  1
 O  O4  1  0.28391  0.89043  0.89043  1
 O  O5  1  0.59469  0.34241  0.59469  1
 O  O6  1  0.59469  0.59469  0.34241  1
 Y  Y1  1  0.00477  0.00477  0.00477  1
