CIF file written using JARVIS-Tools package.
data_TePbO3
_symmetry_space_group_name_H-M  'P4_1'
_cell_length_a       5.36683
_cell_length_b       5.36683
_cell_length_c       12.0183
_cell_angle_alpha    90
_cell_angle_beta     90
_cell_angle_gamma    90

_symmetry_Int_Tables_number  76
_chemical_formula_structural  TePbO3
_chemical_formula_sum  Te4Pb4O2
_cell_volume  346.1625609960655
_cell_formula_units_Z  4
loop_
  _symmetry_equiv_pos_site_id
 _symmetry_equiv_pos_as_xyz
 1  'x, y, z'
loop_
 _atom_site_type_symbol
 _atom_site_label
 _atom_site_symmetry_multiplicity
 _atom_site_fract_x
 _atom_site_fract_y
 _atom_site_fract_z
 _atom_site_fract_occupancy
 O  O1  1  0.97875  0.39402  0.83838  1
 O  O2  1  0.39402  0.02125  0.58838  1
 O  O3  1  0.88029  0.93352  0.70055  1
 O  O4  1  0.47824  0.87782  0.34635  1
 O  O5  1  0.11971  0.06648  0.20055  1
 O  O6  1  0.52176  0.12218  0.84635  1
 O  O7  1  0.02125  0.60598  0.33838  1
 O  O8  1  0.12218  0.47824  0.59635  1
 O  O9  1  0.87782  0.52176  0.09635  1
 O  O10  1  0.93352  0.11971  0.45055  1
 O  O11  1  0.60598  0.97875  0.08838  1
 O  O12  1  0.06648  0.88029  0.95055  1
 Pb  Pb1  1  0.75643  0.75129  0.50222  1
 Pb  Pb2  1  0.24871  0.75643  0.75222  1
 Pb  Pb3  1  0.24357  0.24871  0.00222  1
 Pb  Pb4  1  0.75129  0.24357  0.25222  1
 Te  Te1  1  0.74307  0.25286  0.73769  1
 Te  Te2  1  0.74714  0.74307  0.98769  1
 Te  Te3  1  0.25693  0.74714  0.23769  1
 Te  Te4  1  0.25286  0.25693  0.48769  1
