CIF file written using JARVIS-Tools package.
data_Co3O2F4
_symmetry_space_group_name_H-M  'Pnnm'
_cell_length_a       4.68844
_cell_length_b       2.90276
_cell_length_c       13.7793
_cell_angle_alpha    90
_cell_angle_beta     89.9983
_cell_angle_gamma    90

_symmetry_Int_Tables_number  58
_chemical_formula_structural  Co3O2F4
_chemical_formula_sum  Co6O4F8
_cell_volume  187.52852424486022
_cell_formula_units_Z  2
loop_
  _symmetry_equiv_pos_site_id
 _symmetry_equiv_pos_as_xyz
 1  'x, y, z'
loop_
 _atom_site_type_symbol
 _atom_site_label
 _atom_site_symmetry_multiplicity
 _atom_site_fract_x
 _atom_site_fract_y
 _atom_site_fract_z
 _atom_site_fract_occupancy
 Co  Co1  1  0.07319  0.00000  0.00871  1
 Co  Co2  1  0.92681  0.00000  0.32463  1
 Co  Co3  1  0.00000  0.00000  0.66667  1
 Co  Co4  1  0.50000  0.50000  0.16667  1
 Co  Co5  1  0.42681  0.50000  0.50871  1
 Co  Co6  1  0.57319  0.50000  0.82463  1
 F  F1  1  0.28257  0.00000  0.23661  1
 F  F2  1  0.61994  0.00000  0.43369  1
 F  F3  1  0.71743  0.00000  0.09673  1
 F  F4  1  0.78257  0.50000  0.59672  1
 F  F5  1  0.88006  0.50000  0.93369  1
 F  F6  1  0.21743  0.50000  0.73661  1
 F  F7  1  0.38006  0.00000  0.89965  1
 F  F8  1  0.11994  0.50000  0.39964  1
 O  O1  1  0.73297  0.00000  0.76401  1
 O  O2  1  0.26703  0.00000  0.56933  1
 O  O3  1  0.23297  0.50000  0.06933  1
 O  O4  1  0.76703  0.50000  0.26401  1
