CIF file written using JARVIS-Tools package.
data_CrSbO4
_symmetry_space_group_name_H-M  'I-4m2'
_cell_length_a       5.54234
_cell_length_b       5.54233
_cell_length_c       5.54234
_cell_angle_alpha    138.326
_cell_angle_beta     138.326
_cell_angle_gamma    60.404

_symmetry_Int_Tables_number  119
_chemical_formula_structural  CrSbO4
_chemical_formula_sum  CrSbO4
_cell_volume  74.46874316951252
_cell_formula_units_Z  1
loop_
  _symmetry_equiv_pos_site_id
 _symmetry_equiv_pos_as_xyz
 1  'x, y, z'
loop_
 _atom_site_type_symbol
 _atom_site_label
 _atom_site_symmetry_multiplicity
 _atom_site_fract_x
 _atom_site_fract_y
 _atom_site_fract_z
 _atom_site_fract_occupancy
 Cr  Cr1  1  0.75000  0.25000  0.50000  1
 O  O1  1  0.54339  0.04339  0.50000  1
 O  O2  1  0.20830  0.20830  -0.00000  1
 O  O3  1  0.95661  0.45661  0.50000  1
 O  O4  1  0.79170  0.79170  0.00000  1
 Sb  Sb1  1  0.00000  0.00000  0.00000  1
