CIF file written using JARVIS-Tools package.
data_NaNbCu2S4
_symmetry_space_group_name_H-M  'Ama2'
_cell_length_a       5.53541
_cell_length_b       7.48074
_cell_length_c       9.36128
_cell_angle_alpha    90
_cell_angle_beta     107.197
_cell_angle_gamma    90

_symmetry_Int_Tables_number  40
_chemical_formula_structural  NaNbCu2S4
_chemical_formula_sum  Na2Nb2Cu4S8
_cell_volume  370.3118031563504
_cell_formula_units_Z  2
loop_
  _symmetry_equiv_pos_site_id
 _symmetry_equiv_pos_as_xyz
 1  'x, y, z'
loop_
 _atom_site_type_symbol
 _atom_site_label
 _atom_site_symmetry_multiplicity
 _atom_site_fract_x
 _atom_site_fract_y
 _atom_site_fract_z
 _atom_site_fract_occupancy
 Cu  Cu1  1  0.74872  0.00000  0.00000  1
 Cu  Cu2  1  0.74872  0.50000  0.00000  1
 Cu  Cu3  1  0.37505  0.75000  0.21559  1
 Cu  Cu4  1  0.15946  0.25000  0.78441  1
 Na  Na1  1  0.72076  0.75000  0.65686  1
 Na  Na2  1  0.06390  0.25000  0.34314  1
 Nb  Nb1  1  0.88272  0.75000  0.22878  1
 Nb  Nb2  1  0.65394  0.25000  0.77122  1
 S  S1  1  0.23822  0.75000  0.43031  1
 S  S2  1  0.80791  0.25000  0.56969  1
 S  S3  1  0.62905  0.00107  0.21791  1
 S  S4  1  0.41113  -0.00107  0.78209  1
 S  S5  1  0.00190  0.25000  0.99135  1
 S  S6  1  0.01055  0.75000  0.00865  1
 S  S7  1  0.41113  0.50107  0.78209  1
 S  S8  1  0.62905  0.49893  0.21791  1
