CIF file written using JARVIS-Tools package.
data_TmH3O3
_symmetry_space_group_name_H-M  'P6_3/m'
_cell_length_a       6.21046
_cell_length_b       3.46605
_cell_length_c       6.21042
_cell_angle_alpha    90
_cell_angle_beta     119.983
_cell_angle_gamma    90

_symmetry_Int_Tables_number  176
_chemical_formula_structural  TmH3O3
_chemical_formula_sum  Tm2H6O6
_cell_volume  115.7937047389315
_cell_formula_units_Z  2
loop_
  _symmetry_equiv_pos_site_id
 _symmetry_equiv_pos_as_xyz
 1  'x, y, z'
loop_
 _atom_site_type_symbol
 _atom_site_label
 _atom_site_symmetry_multiplicity
 _atom_site_fract_x
 _atom_site_fract_y
 _atom_site_fract_z
 _atom_site_fract_occupancy
 H  H1  1  0.72502  0.75000  0.85773  1
 H  H2  1  0.14207  0.75000  0.86723  1
 H  H3  1  0.13279  0.75000  0.27512  1
 H  H4  1  0.27498  0.25000  0.14227  1
 H  H5  1  0.85793  0.25000  0.13277  1
 H  H6  1  0.86721  0.25000  0.72488  1
 O  O1  1  0.60446  0.75000  0.91497  1
 O  O2  1  0.08500  0.75000  0.68950  1
 O  O3  1  0.31055  0.75000  0.39561  1
 O  O4  1  0.39554  0.25000  0.08503  1
 O  O5  1  0.91500  0.25000  0.31050  1
 O  O6  1  0.68945  0.25000  0.60439  1
 Tm  Tm1  1  0.66664  0.75000  0.33328  1
 Tm  Tm2  1  0.33336  0.25000  0.66672  1
