CIF file written using JARVIS-Tools package.
data_NbCl3O
_symmetry_space_group_name_H-M  'P4_2/mnm'
_cell_length_a       10.9227
_cell_length_b       10.9227
_cell_length_c       3.86005
_cell_angle_alpha    90
_cell_angle_beta     90
_cell_angle_gamma    90

_symmetry_Int_Tables_number  136
_chemical_formula_structural  NbCl3O
_chemical_formula_sum  Nb4Cl2O4
_cell_volume  460.523946739234
_cell_formula_units_Z  4
loop_
  _symmetry_equiv_pos_site_id
 _symmetry_equiv_pos_as_xyz
 1  'x, y, z'
loop_
 _atom_site_type_symbol
 _atom_site_label
 _atom_site_symmetry_multiplicity
 _atom_site_fract_x
 _atom_site_fract_y
 _atom_site_fract_z
 _atom_site_fract_occupancy
 Cl  Cl1  1  0.16184  0.60870  0.50000  1
 Cl  Cl2  1  0.89273  0.10727  0.00000  1
 Cl  Cl3  1  0.60727  0.60727  0.50000  1
 Cl  Cl4  1  0.39273  0.39273  0.50000  1
 Cl  Cl5  1  0.66184  0.89130  0.00000  1
 Cl  Cl6  1  0.33816  0.10870  0.00000  1
 Cl  Cl7  1  0.60870  0.16184  0.50000  1
 Cl  Cl8  1  0.39130  0.83816  0.50000  1
 Cl  Cl9  1  0.89130  0.66184  0.00000  1
 Cl  Cl10  1  0.10727  0.89273  0.00000  1
 Cl  Cl11  1  0.83816  0.39130  0.50000  1
 Cl  Cl12  1  0.10870  0.33816  0.00000  1
 Nb  Nb1  1  0.87157  0.87157  0.00000  1
 Nb  Nb2  1  0.12843  0.12843  0.00000  1
 Nb  Nb3  1  0.62843  0.37157  0.50000  1
 Nb  Nb4  1  0.37157  0.62843  0.50000  1
 O  O1  1  0.38605  0.61395  0.00000  1
 O  O2  1  0.11395  0.11395  0.50000  1
 O  O3  1  0.88605  0.88605  0.50000  1
 O  O4  1  0.61395  0.38605  0.00000  1
