CIF file written using JARVIS-Tools package.
data_Na4TiO4
_symmetry_space_group_name_H-M  'Cmcm'
_cell_length_a       6.17528
_cell_length_b       6.17528
_cell_length_c       6.71085
_cell_angle_alpha    90
_cell_angle_beta     90
_cell_angle_gamma    91.0408

_symmetry_Int_Tables_number  63
_chemical_formula_structural  Na4TiO4
_chemical_formula_sum  Na8Ti2O8
_cell_volume  255.8696721730022
_cell_formula_units_Z  2
loop_
  _symmetry_equiv_pos_site_id
 _symmetry_equiv_pos_as_xyz
 1  'x, y, z'
loop_
 _atom_site_type_symbol
 _atom_site_label
 _atom_site_symmetry_multiplicity
 _atom_site_fract_x
 _atom_site_fract_y
 _atom_site_fract_z
 _atom_site_fract_occupancy
 Na  Na1  1  0.16269  0.83731  0.50000  1
 Na  Na2  1  0.16269  0.83731  0.00000  1
 Na  Na3  1  0.55913  0.86511  0.25000  1
 Na  Na4  1  0.13489  0.44087  0.75000  1
 Na  Na5  1  0.44087  0.13489  0.75000  1
 Na  Na6  1  0.86511  0.55913  0.25000  1
 Na  Na7  1  0.83731  0.16269  0.00000  1
 Na  Na8  1  0.83731  0.16269  0.50000  1
 O  O1  1  0.79324  0.79324  0.52350  1
 O  O2  1  0.20676  0.20676  0.02350  1
 O  O3  1  0.20676  0.20676  0.47650  1
 O  O4  1  0.79324  0.79324  0.97650  1
 O  O5  1  0.61969  0.26411  0.25000  1
 O  O6  1  0.26411  0.61969  0.25000  1
 O  O7  1  0.73589  0.38031  0.75000  1
 O  O8  1  0.38031  0.73589  0.75000  1
 Ti  Ti1  1  0.66988  0.66988  0.75000  1
 Ti  Ti2  1  0.33012  0.33012  0.25000  1
