CIF file written using JARVIS-Tools package.
data_CaIn2Au
_symmetry_space_group_name_H-M  'Cmcm'
_cell_length_a       4.60157
_cell_length_b       5.91975
_cell_length_c       7.68316
_cell_angle_alpha    90
_cell_angle_beta     90
_cell_angle_gamma    112.871

_symmetry_Int_Tables_number  63
_chemical_formula_structural  CaIn2Au
_chemical_formula_sum  Ca2In4Au2
_cell_volume  192.835905629912
_cell_formula_units_Z  2
loop_
  _symmetry_equiv_pos_site_id
 _symmetry_equiv_pos_as_xyz
 1  'x, y, z'
loop_
 _atom_site_type_symbol
 _atom_site_label
 _atom_site_symmetry_multiplicity
 _atom_site_fract_x
 _atom_site_fract_y
 _atom_site_fract_z
 _atom_site_fract_occupancy
 Au  Au1  1  0.79039  0.58078  0.75000  1
 Au  Au2  1  0.20961  0.41922  0.25000  1
 Ca  Ca1  1  0.07666  0.15331  0.75000  1
 Ca  Ca2  1  0.92334  0.84669  0.25000  1
 In  In1  1  0.36596  0.73193  0.95081  1
 In  In2  1  0.36596  0.73193  0.54919  1
 In  In3  1  0.63404  0.26807  0.04919  1
 In  In4  1  0.63404  0.26807  0.45081  1
