CIF file written using JARVIS-Tools package.
data_TbC2
_symmetry_space_group_name_H-M  'I4/mmm'
_cell_length_a       3.6848
_cell_length_b       3.6848
_cell_length_c       4.06494
_cell_angle_alpha    116.952
_cell_angle_beta     116.952
_cell_angle_gamma    90

_symmetry_Int_Tables_number  139
_chemical_formula_structural  TbC2
_chemical_formula_sum  TbC2
_cell_volume  42.36361535651976
_cell_formula_units_Z  1
loop_
  _symmetry_equiv_pos_site_id
 _symmetry_equiv_pos_as_xyz
 1  'x, y, z'
loop_
 _atom_site_type_symbol
 _atom_site_label
 _atom_site_symmetry_multiplicity
 _atom_site_fract_x
 _atom_site_fract_y
 _atom_site_fract_z
 _atom_site_fract_occupancy
 C  C1  1  0.60373  0.60373  0.20745  1
 C  C2  1  0.39627  0.39627  0.79255  1
 Tb  Tb1  1  0.00000  0.00000  0.00000  1
