CIF file written using JARVIS-Tools package.
data_PrLuSe3
_symmetry_space_group_name_H-M  'Cmcm'
_cell_length_a       4.03527
_cell_length_b       6.84153
_cell_length_c       9.95246
_cell_angle_alpha    90
_cell_angle_beta     90
_cell_angle_gamma    107.152

_symmetry_Int_Tables_number  63
_chemical_formula_structural  PrLuSe3
_chemical_formula_sum  Pr2Lu2Se6
_cell_volume  262.541926583478
_cell_formula_units_Z  2
loop_
  _symmetry_equiv_pos_site_id
 _symmetry_equiv_pos_as_xyz
 1  'x, y, z'
loop_
 _atom_site_type_symbol
 _atom_site_label
 _atom_site_symmetry_multiplicity
 _atom_site_fract_x
 _atom_site_fract_y
 _atom_site_fract_z
 _atom_site_fract_occupancy
 Lu  Lu1  1  0.00000  0.00000  0.00000  1
 Lu  Lu2  1  0.00000  0.00000  0.50000  1
 Pr  Pr1  1  0.74766  0.49531  0.75000  1
 Pr  Pr2  1  0.25234  0.50469  0.25000  1
 Se  Se1  1  0.91653  0.83305  0.25000  1
 Se  Se2  1  0.08347  0.16695  0.75000  1
 Se  Se3  1  0.35730  0.71460  0.56114  1
 Se  Se4  1  0.64270  0.28540  0.43886  1
 Se  Se5  1  0.35730  0.71460  0.93886  1
 Se  Se6  1  0.64270  0.28540  0.06114  1
