CIF file written using JARVIS-Tools package.
data_Li2FeCuP2O8
_symmetry_space_group_name_H-M  'P2_1/m'
_cell_length_a       4.72075
_cell_length_b       6.03689
_cell_length_c       10.1283
_cell_angle_alpha    90
_cell_angle_beta     90.9691
_cell_angle_gamma    90

_symmetry_Int_Tables_number  11
_chemical_formula_structural  Li2FeCuP2O8
_chemical_formula_sum  Li4Fe2Cu2P4O6
_cell_volume  288.60128560376717
_cell_formula_units_Z  2
loop_
  _symmetry_equiv_pos_site_id
 _symmetry_equiv_pos_as_xyz
 1  'x, y, z'
loop_
 _atom_site_type_symbol
 _atom_site_label
 _atom_site_symmetry_multiplicity
 _atom_site_fract_x
 _atom_site_fract_y
 _atom_site_fract_z
 _atom_site_fract_occupancy
 Cu  Cu1  1  0.94981  0.25000  0.28329  1
 Cu  Cu2  1  0.05019  0.75000  0.71671  1
 Fe  Fe1  1  0.47845  0.75000  0.21823  1
 Fe  Fe2  1  0.52155  0.25000  0.78177  1
 Li  Li1  1  0.00000  0.00000  0.00000  1
 Li  Li2  1  0.00000  0.50000  0.00000  1
 Li  Li3  1  0.50000  0.00000  0.50000  1
 Li  Li4  1  0.50000  0.50000  0.50000  1
 O  O1  1  0.74871  0.25000  0.09354  1
 O  O2  1  0.77027  0.95050  0.33278  1
 O  O3  1  0.77027  0.54950  0.33278  1
 O  O4  1  0.71123  0.75000  0.04809  1
 O  O5  1  0.29772  0.04030  0.16270  1
 O  O6  1  0.25129  0.75000  0.90646  1
 O  O7  1  0.19890  0.25000  0.45188  1
 O  O8  1  0.29772  0.45970  0.16270  1
 O  O9  1  0.80110  0.75000  0.54812  1
 O  O10  1  0.70228  0.54030  0.83730  1
 O  O11  1  0.22973  0.04950  0.66722  1
 O  O12  1  0.22973  0.45050  0.66722  1
 O  O13  1  0.24000  0.75000  0.39982  1
 O  O14  1  0.70228  0.95970  0.83730  1
 O  O15  1  0.76000  0.25000  0.60018  1
 O  O16  1  0.28877  0.25000  0.95191  1
 P  P1  1  0.42344  0.25000  0.09424  1
 P  P2  1  0.91517  0.75000  0.40573  1
 P  P3  1  0.08483  0.25000  0.59427  1
 P  P4  1  0.57656  0.75000  0.90576  1
