CIF file written using JARVIS-Tools package.
data_Na2MnCSO7
_symmetry_space_group_name_H-M  'P2_1/m'
_cell_length_a       5.23397
_cell_length_b       6.77115
_cell_length_c       8.99123
_cell_angle_alpha    90
_cell_angle_beta     90.1213
_cell_angle_gamma    90

_symmetry_Int_Tables_number  11
_chemical_formula_structural  Na2MnCSO7
_chemical_formula_sum  Na4Mn2C2S2O4
_cell_volume  318.64862866106404
_cell_formula_units_Z  2
loop_
  _symmetry_equiv_pos_site_id
 _symmetry_equiv_pos_as_xyz
 1  'x, y, z'
loop_
 _atom_site_type_symbol
 _atom_site_label
 _atom_site_symmetry_multiplicity
 _atom_site_fract_x
 _atom_site_fract_y
 _atom_site_fract_z
 _atom_site_fract_occupancy
 C  C1  1  0.28572  0.25000  0.07769  1
 C  C2  1  0.71428  0.75000  0.92231  1
 Mn  Mn1  1  0.23072  0.25000  0.36314  1
 Mn  Mn2  1  0.76928  0.75000  0.63686  1
 Na  Na1  1  0.77409  0.49565  0.20915  1
 Na  Na2  1  0.77409  0.00435  0.20915  1
 Na  Na3  1  0.22591  0.50435  0.79085  1
 Na  Na4  1  0.22591  0.99565  0.79085  1
 O  O1  1  0.67097  0.75000  0.06062  1
 O  O2  1  0.94347  0.75000  0.86530  1
 O  O3  1  0.47267  0.25000  0.17668  1
 O  O4  1  0.18648  0.92785  0.34099  1
 O  O5  1  0.18648  0.57215  0.34099  1
 O  O6  1  0.05653  0.25000  0.13470  1
 O  O7  1  0.56543  0.75000  0.42627  1
 O  O8  1  0.81352  0.07215  0.65901  1
 O  O9  1  0.17996  0.75000  0.57570  1
 O  O10  1  0.81352  0.42785  0.65901  1
 O  O11  1  0.82004  0.25000  0.42430  1
 O  O12  1  0.52733  0.75000  0.82332  1
 O  O13  1  0.43457  0.25000  0.57373  1
 O  O14  1  0.32903  0.25000  0.93938  1
 S  S1  1  0.72174  0.25000  0.58009  1
 S  S2  1  0.27826  0.75000  0.41991  1
