CIF file written using JARVIS-Tools package.
data_ZnSnO3
_symmetry_space_group_name_H-M  'R3c'
_cell_length_a       5.63249
_cell_length_b       5.63249
_cell_length_c       5.63249
_cell_angle_alpha    56.603
_cell_angle_beta     56.603
_cell_angle_gamma    56.603

_symmetry_Int_Tables_number  161
_chemical_formula_structural  ZnSnO3
_chemical_formula_sum  Zn2Sn2O6
_cell_volume  116.43755127743124
_cell_formula_units_Z  2
loop_
  _symmetry_equiv_pos_site_id
 _symmetry_equiv_pos_as_xyz
 1  'x, y, z'
loop_
 _atom_site_type_symbol
 _atom_site_label
 _atom_site_symmetry_multiplicity
 _atom_site_fract_x
 _atom_site_fract_y
 _atom_site_fract_z
 _atom_site_fract_occupancy
 O  O1  1  0.60686  0.21345  0.89367  1
 O  O2  1  0.21345  0.89367  0.60686  1
 O  O3  1  0.89367  0.60686  0.21345  1
 O  O4  1  0.39367  0.71345  0.10686  1
 O  O5  1  0.10686  0.39367  0.71345  1
 O  O6  1  0.71345  0.10686  0.39367  1
 Sn  Sn1  1  0.00227  0.00227  0.00227  1
 Sn  Sn2  1  0.50227  0.50227  0.50227  1
 Zn  Zn1  1  0.28235  0.28235  0.28235  1
 Zn  Zn2  1  0.78235  0.78235  0.78235  1
