CIF file written using JARVIS-Tools package.
data_UCr6P4
_symmetry_space_group_name_H-M  'P-6m2'
_cell_length_a       7.10121
_cell_length_b       7.10121
_cell_length_c       3.23802
_cell_angle_alpha    90
_cell_angle_beta     90
_cell_angle_gamma    120

_symmetry_Int_Tables_number  187
_chemical_formula_structural  UCr6P4
_chemical_formula_sum  UCr6P4
_cell_volume  141.4081863947252
_cell_formula_units_Z  1
loop_
  _symmetry_equiv_pos_site_id
 _symmetry_equiv_pos_as_xyz
 1  'x, y, z'
loop_
 _atom_site_type_symbol
 _atom_site_label
 _atom_site_symmetry_multiplicity
 _atom_site_fract_x
 _atom_site_fract_y
 _atom_site_fract_z
 _atom_site_fract_occupancy
 Cr  Cr1  1  0.39684  0.19842  0.50000  1
 Cr  Cr2  1  0.46416  0.92833  0.00000  1
 Cr  Cr3  1  0.07167  0.53584  0.00000  1
 Cr  Cr4  1  0.80158  0.19842  0.50000  1
 Cr  Cr5  1  0.46416  0.53584  0.00000  1
 Cr  Cr6  1  0.80158  0.60316  0.50000  1
 P  P1  1  0.66667  0.33333  0.00000  1
 P  P2  1  0.18783  0.81217  0.50000  1
 P  P3  1  0.62434  0.81217  0.50000  1
 P  P4  1  0.18783  0.37566  0.50000  1
 U  U1  1  0.00000  0.00000  0.00000  1
