CIF file written using JARVIS-Tools package.
data_DyAlO3
_symmetry_space_group_name_H-M  'R-3c'
_cell_length_a       5.21606
_cell_length_b       5.21606
_cell_length_c       5.21605
_cell_angle_alpha    60.9972
_cell_angle_beta     60.9972
_cell_angle_gamma    60.9973

_symmetry_Int_Tables_number  167
_chemical_formula_structural  DyAlO3
_chemical_formula_sum  Dy2Al2O6
_cell_volume  102.60299103821676
_cell_formula_units_Z  2
loop_
  _symmetry_equiv_pos_site_id
 _symmetry_equiv_pos_as_xyz
 1  'x, y, z'
loop_
 _atom_site_type_symbol
 _atom_site_label
 _atom_site_symmetry_multiplicity
 _atom_site_fract_x
 _atom_site_fract_y
 _atom_site_fract_z
 _atom_site_fract_occupancy
 Al  Al1  1  0.00000  0.00000  0.00000  1
 Al  Al2  1  0.50000  0.50000  0.50000  1
 Dy  Dy1  1  0.25000  0.25000  0.25000  1
 Dy  Dy2  1  0.75000  0.75000  0.75000  1
 O  O1  1  0.17557  0.32443  0.75000  1
 O  O2  1  0.32443  0.75000  0.17557  1
 O  O3  1  0.25000  0.82443  0.67557  1
 O  O4  1  0.75000  0.17557  0.32443  1
 O  O5  1  0.67557  0.25000  0.82443  1
 O  O6  1  0.82443  0.67557  0.25000  1
