CIF file written using JARVIS-Tools package.
data_RhO2F6
_symmetry_space_group_name_H-M  'P-1'
_cell_length_a       4.99061
_cell_length_b       5.09587
_cell_length_c       5.1681
_cell_angle_alpha    92.1154
_cell_angle_beta     102.814
_cell_angle_gamma    100.629

_symmetry_Int_Tables_number  2
_chemical_formula_structural  RhO2F6
_chemical_formula_sum  RhO2F6
_cell_volume  125.54397630629897
_cell_formula_units_Z  1
loop_
  _symmetry_equiv_pos_site_id
 _symmetry_equiv_pos_as_xyz
 1  'x, y, z'
loop_
 _atom_site_type_symbol
 _atom_site_label
 _atom_site_symmetry_multiplicity
 _atom_site_fract_x
 _atom_site_fract_y
 _atom_site_fract_z
 _atom_site_fract_occupancy
 F  F1  1  0.80560  0.67082  0.07291  1
 F  F2  1  0.66435  0.06963  0.79651  1
 F  F3  1  0.33565  0.93037  0.20349  1
 F  F4  1  0.06229  0.83275  0.69743  1
 F  F5  1  0.93771  0.16725  0.30257  1
 F  F6  1  0.19440  0.32918  0.92709  1
 O  O1  1  0.40954  0.54702  0.53082  1
 O  O2  1  0.59046  0.45298  0.46918  1
 Rh  Rh1  1  0.00000  0.00000  0.00000  1
