CIF file written using JARVIS-Tools package.
data_BaCu2O2
_symmetry_space_group_name_H-M  'I4_1/amd'
_cell_length_a       5.77538
_cell_length_b       5.77538
_cell_length_c       6.52459
_cell_angle_alpha    116.269
_cell_angle_beta     116.269
_cell_angle_gamma    90

_symmetry_Int_Tables_number  141
_chemical_formula_structural  BaCu2O2
_chemical_formula_sum  Ba2Cu4O4
_cell_volume  169.72675764293098
_cell_formula_units_Z  2
loop_
  _symmetry_equiv_pos_site_id
 _symmetry_equiv_pos_as_xyz
 1  'x, y, z'
loop_
 _atom_site_type_symbol
 _atom_site_label
 _atom_site_symmetry_multiplicity
 _atom_site_fract_x
 _atom_site_fract_y
 _atom_site_fract_z
 _atom_site_fract_occupancy
 Ba  Ba1  1  0.87500  0.12500  0.75000  1
 Ba  Ba2  1  0.12500  0.87500  0.25000  1
 Cu  Cu1  1  0.50000  0.50000  0.50000  1
 Cu  Cu2  1  0.50000  0.00000  0.00000  1
 Cu  Cu3  1  -0.00000  0.50000  0.50000  1
 Cu  Cu4  1  0.50000  0.50000  0.00000  1
 O  O1  1  0.61333  0.86333  0.22667  1
 O  O2  1  0.86333  0.61333  0.72667  1
 O  O3  1  0.38667  0.13667  0.77333  1
 O  O4  1  0.13667  0.38667  0.27333  1
