CIF file written using JARVIS-Tools package.
data_LuH3O3
_symmetry_space_group_name_H-M  'R-3'
_cell_length_a       7.06742
_cell_length_b       7.06742
_cell_length_c       6.98574
_cell_angle_alpha    109.237
_cell_angle_beta     109.237
_cell_angle_gamma    109.704

_symmetry_Int_Tables_number  148
_chemical_formula_structural  LuH3O3
_chemical_formula_sum  Lu4H2O2
_cell_volume  269.37555359914546
_cell_formula_units_Z  4
loop_
  _symmetry_equiv_pos_site_id
 _symmetry_equiv_pos_as_xyz
 1  'x, y, z'
loop_
 _atom_site_type_symbol
 _atom_site_label
 _atom_site_symmetry_multiplicity
 _atom_site_fract_x
 _atom_site_fract_y
 _atom_site_fract_z
 _atom_site_fract_occupancy
 H  H1  1  0.68573  0.72558  0.04070  1
 H  H2  1  0.17226  0.54852  0.71744  1
 H  H3  1  0.31427  0.27442  0.95930  1
 H  H4  1  0.45148  0.62374  0.16892  1
 H  H5  1  0.37626  0.82774  0.54517  1
 H  H6  1  0.62374  0.17226  0.45483  1
 H  H7  1  0.27442  0.96015  0.31512  1
 H  H8  1  0.96015  0.68573  0.64502  1
 H  H9  1  0.03985  0.31427  0.35498  1
 H  H10  1  0.72558  0.03985  0.68488  1
 H  H11  1  0.82774  0.45148  0.28256  1
 H  H12  1  0.54852  0.37626  0.83108  1
 Lu  Lu1  1  0.50000  -0.00000  0.00000  1
 Lu  Lu2  1  0.00000  0.50000  0.00000  1
 Lu  Lu3  1  -0.00000  -0.00000  0.50000  1
 Lu  Lu4  1  0.50000  0.50000  0.50000  1
 O  O1  1  0.83147  0.33107  0.16103  1
 O  O2  1  0.84789  0.16453  0.68505  1
 O  O3  1  0.15211  0.83547  0.31495  1
 O  O4  1  0.83547  0.68336  0.52053  1
 O  O5  1  0.16453  0.31664  0.47947  1
 O  O6  1  0.16853  0.66893  0.83897  1
 O  O7  1  0.33107  0.49959  0.17004  1
 O  O8  1  0.66893  0.50041  0.82996  1
 O  O9  1  0.68336  0.84789  0.16283  1
 O  O10  1  0.31664  0.15211  0.83717  1
 O  O11  1  0.49959  0.16853  0.32955  1
 O  O12  1  0.50041  0.83147  0.67045  1
