CIF file written using JARVIS-Tools package.
data_Cu3BiSe2IO8
_symmetry_space_group_name_H-M  'Pmmn'
_cell_length_a       6.44687
_cell_length_b       7.3345
_cell_length_c       9.82077
_cell_angle_alpha    90
_cell_angle_beta     90
_cell_angle_gamma    90

_symmetry_Int_Tables_number  59
_chemical_formula_structural  Cu3BiSe2IO8
_chemical_formula_sum  Cu6Bi2Se4I2O6
_cell_volume  464.3709095876737
_cell_formula_units_Z  2
loop_
  _symmetry_equiv_pos_site_id
 _symmetry_equiv_pos_as_xyz
 1  'x, y, z'
loop_
 _atom_site_type_symbol
 _atom_site_label
 _atom_site_symmetry_multiplicity
 _atom_site_fract_x
 _atom_site_fract_y
 _atom_site_fract_z
 _atom_site_fract_occupancy
 Bi  Bi1  1  0.25000  0.25057  0.25000  1
 Bi  Bi2  1  0.75000  0.74943  0.75000  1
 Cu  Cu1  1  0.25000  0.79467  0.25000  1
 Cu  Cu2  1  0.75000  0.20533  0.75000  1
 Cu  Cu3  1  0.50000  0.00000  0.50000  1
 Cu  Cu4  1  0.00000  0.00000  0.00000  1
 Cu  Cu5  1  0.00000  0.00000  0.50000  1
 Cu  Cu6  1  0.50000  0.00000  0.00000  1
 I  I1  1  0.75000  0.83200  0.25000  1
 I  I2  1  0.25000  0.16800  0.75000  1
 O  O1  1  0.03967  0.75273  0.91560  1
 O  O2  1  0.53967  0.24727  0.08440  1
 O  O3  1  0.75000  0.41190  0.88233  1
 O  O4  1  0.96033  0.24727  0.41560  1
 O  O5  1  0.25000  0.99226  0.38627  1
 O  O6  1  0.25000  0.58810  0.38233  1
 O  O7  1  0.03967  0.75273  0.58440  1
 O  O8  1  0.75000  0.00774  0.88627  1
 O  O9  1  0.46033  0.75273  0.58440  1
 O  O10  1  0.53967  0.24727  0.41560  1
 O  O11  1  0.75000  0.00774  0.61373  1
 O  O12  1  0.96033  0.24727  0.08440  1
 O  O13  1  0.25000  0.99226  0.11373  1
 O  O14  1  0.46033  0.75273  0.91560  1
 O  O15  1  0.75000  0.41190  0.61767  1
 O  O16  1  0.25000  0.58810  0.11767  1
 Se  Se1  1  0.25000  0.60711  0.55650  1
 Se  Se2  1  0.75000  0.39289  0.44350  1
 Se  Se3  1  0.75000  0.39289  0.05650  1
 Se  Se4  1  0.25000  0.60711  0.94350  1
