CIF file written using JARVIS-Tools package.
data_Ga2Se3
_symmetry_space_group_name_H-M  'Ima2'
_cell_length_a       5.03424
_cell_length_b       11.0301
_cell_length_c       8.11605
_cell_angle_alpha    132.84
_cell_angle_beta     108.068
_cell_angle_gamma    90

_symmetry_Int_Tables_number  46
_chemical_formula_structural  Ga2Se3
_chemical_formula_sum  Ga4Se6
_cell_volume  299.4390131727252
_cell_formula_units_Z  2
loop_
  _symmetry_equiv_pos_site_id
 _symmetry_equiv_pos_as_xyz
 1  'x, y, z'
loop_
 _atom_site_type_symbol
 _atom_site_label
 _atom_site_symmetry_multiplicity
 _atom_site_fract_x
 _atom_site_fract_y
 _atom_site_fract_z
 _atom_site_fract_occupancy
 Ga  Ga1  1  0.37563  0.59710  0.75128  1
 Ga  Ga2  1  0.37565  0.09710  0.75128  1
 Ga  Ga3  1  0.00467  0.47193  0.00086  1
 Ga  Ga4  1  -0.00380  0.97193  0.00086  1
 Se  Se1  1  0.90236  0.88741  0.18694  1
 Se  Se2  1  0.19850  0.83075  0.71853  1
 Se  Se3  1  0.28458  0.38741  0.18694  1
 Se  Se4  1  0.52003  0.33075  0.71853  1
 Se  Se5  1  0.90218  0.24262  0.18699  1
 Se  Se6  1  0.28481  0.74262  0.18699  1
