CIF file written using JARVIS-Tools package.
data_ReTe3Br5
_symmetry_space_group_name_H-M  'P2_1'
_cell_length_a       8.62081
_cell_length_b       11.3108
_cell_length_c       12.4047
_cell_angle_alpha    105.56
_cell_angle_beta     90
_cell_angle_gamma    90

_symmetry_Int_Tables_number  4
_chemical_formula_structural  ReTe3Br5
_chemical_formula_sum  Re4Te2Br20
_cell_volume  1165.2352446897917
_cell_formula_units_Z  4
loop_
  _symmetry_equiv_pos_site_id
 _symmetry_equiv_pos_as_xyz
 1  'x, y, z'
loop_
 _atom_site_type_symbol
 _atom_site_label
 _atom_site_symmetry_multiplicity
 _atom_site_fract_x
 _atom_site_fract_y
 _atom_site_fract_z
 _atom_site_fract_occupancy
 Br  Br1  1  0.24110  0.60100  0.89661  1
 Br  Br2  1  0.17554  0.03080  0.69836  1
 Br  Br3  1  0.36688  0.55042  0.21897  1
 Br  Br4  1  0.49145  0.87841  0.85397  1
 Br  Br5  1  0.11131  0.27440  0.92019  1
 Br  Br6  1  0.24061  0.01128  0.35358  1
 Br  Br7  1  0.56968  0.58787  0.68455  1
 Br  Br8  1  0.74110  0.39900  0.10339  1
 Br  Br9  1  0.67554  0.96920  0.30164  1
 Br  Br10  1  0.08659  0.66587  0.62878  1
 Br  Br11  1  0.58659  0.33413  0.37122  1
 Br  Br12  1  0.94710  0.20209  0.49038  1
 Br  Br13  1  0.61131  0.72560  0.07981  1
 Br  Br14  1  0.86688  0.44958  0.78103  1
 Br  Br15  1  0.99145  0.12159  0.14603  1
 Br  Br16  1  0.44710  0.79791  0.50962  1
 Br  Br17  1  0.74061  0.98872  0.64642  1
 Br  Br18  1  0.06968  0.41213  0.31545  1
 Br  Br19  1  0.44838  0.15991  0.11128  1
 Br  Br20  1  0.94838  0.84009  0.88872  1
 Re  Re1  1  0.08366  0.63415  0.27865  1
 Re  Re2  1  0.58366  0.36585  0.72135  1
 Re  Re3  1  0.36043  0.22023  0.79091  1
 Re  Re4  1  0.86043  0.77977  0.20909  1
 Te  Te1  1  0.96893  0.83793  0.42336  1
 Te  Te2  1  0.66012  0.18809  0.81676  1
 Te  Te3  1  0.45615  0.43599  0.92279  1
 Te  Te4  1  0.46893  0.16207  0.57664  1
 Te  Te5  1  0.30850  0.06274  0.92221  1
 Te  Te6  1  0.76600  0.39117  0.54767  1
 Te  Te7  1  0.95615  0.56401  0.07721  1
 Te  Te8  1  0.27775  0.36167  0.65210  1
 Te  Te9  1  0.80850  0.93726  0.07779  1
 Te  Te10  1  0.77775  0.63833  0.34790  1
 Te  Te11  1  0.26600  0.60883  0.45233  1
 Te  Te12  1  0.16012  0.81191  0.18324  1
