CIF file written using JARVIS-Tools package.
data_TlHgF3
_symmetry_space_group_name_H-M  'P1'
_cell_length_a       4.52828
_cell_length_b       4.50431
_cell_length_c       4.56072
_cell_angle_alpha    84.4311
_cell_angle_beta     89.7658
_cell_angle_gamma    89.9869

_symmetry_Int_Tables_number  1
_chemical_formula_structural  TlHgF3
_chemical_formula_sum  TlHgF3
_cell_volume  92.58416026013961
_cell_formula_units_Z  1
loop_
  _symmetry_equiv_pos_site_id
 _symmetry_equiv_pos_as_xyz
 1  'x, y, z'
loop_
 _atom_site_type_symbol
 _atom_site_label
 _atom_site_symmetry_multiplicity
 _atom_site_fract_x
 _atom_site_fract_y
 _atom_site_fract_z
 _atom_site_fract_occupancy
 F  F1  1  -0.00032  0.50149  0.44593  1
 F  F2  1  0.49899  0.00355  0.43258  1
 F  F3  1  0.50240  0.59165  0.01577  1
 Hg  Hg1  1  0.49899  0.47797  0.55133  1
 Tl  Tl1  1  -0.00007  0.98534  0.06440  1
