CIF file written using JARVIS-Tools package.
data_K8N3O
_symmetry_space_group_name_H-M  'Pm-3m'
_cell_length_a       6.62288
_cell_length_b       6.62288
_cell_length_c       6.62288
_cell_angle_alpha    90
_cell_angle_beta     90
_cell_angle_gamma    90

_symmetry_Int_Tables_number  221
_chemical_formula_structural  K8N3O
_chemical_formula_sum  K8N3O
_cell_volume  290.4961800134699
_cell_formula_units_Z  1
loop_
  _symmetry_equiv_pos_site_id
 _symmetry_equiv_pos_as_xyz
 1  'x, y, z'
loop_
 _atom_site_type_symbol
 _atom_site_label
 _atom_site_symmetry_multiplicity
 _atom_site_fract_x
 _atom_site_fract_y
 _atom_site_fract_z
 _atom_site_fract_occupancy
 K  K1  1  0.25571  0.74429  0.25571  1
 K  K2  1  0.74429  0.25571  0.25571  1
 K  K3  1  0.74429  0.74429  0.74429  1
 K  K4  1  0.25571  0.25571  0.74429  1
 K  K5  1  0.25571  0.74429  0.74429  1
 K  K6  1  0.74429  0.25571  0.74429  1
 K  K7  1  0.74429  0.74429  0.25571  1
 K  K8  1  0.25571  0.25571  0.25571  1
 N  N1  1  0.00000  0.50000  0.00000  1
 N  N2  1  0.50000  0.00000  0.00000  1
 N  N3  1  0.00000  0.00000  0.50000  1
 O  O1  1  0.50000  0.50000  0.50000  1
