CIF file written using JARVIS-Tools package.
data_TaPbS2
_symmetry_space_group_name_H-M  'P6_3/mmc'
_cell_length_a       3.37214
_cell_length_b       3.37214
_cell_length_c       18.0024
_cell_angle_alpha    90
_cell_angle_beta     90
_cell_angle_gamma    120

_symmetry_Int_Tables_number  194
_chemical_formula_structural  TaPbS2
_chemical_formula_sum  Ta2Pb2S4
_cell_volume  177.28522282399328
_cell_formula_units_Z  2
loop_
  _symmetry_equiv_pos_site_id
 _symmetry_equiv_pos_as_xyz
 1  'x, y, z'
loop_
 _atom_site_type_symbol
 _atom_site_label
 _atom_site_symmetry_multiplicity
 _atom_site_fract_x
 _atom_site_fract_y
 _atom_site_fract_z
 _atom_site_fract_occupancy
 Pb  Pb1  1  0.00000  0.00000  0.00000  1
 Pb  Pb2  1  0.00000  0.00000  0.50000  1
 S  S1  1  0.00000  0.00000  0.16384  1
 S  S2  1  0.00000  0.00000  0.66384  1
 S  S3  1  0.00000  0.00000  0.33616  1
 S  S4  1  0.00000  0.00000  0.83616  1
 Ta  Ta1  1  0.66667  0.33333  0.75000  1
 Ta  Ta2  1  0.33333  0.66667  0.25000  1
