CIF file written using JARVIS-Tools package.
data_UO3
_symmetry_space_group_name_H-M  'P2_12_12_1'
_cell_length_a       5.20578
_cell_length_b       5.51807
_cell_length_c       7.42529
_cell_angle_alpha    90
_cell_angle_beta     90
_cell_angle_gamma    90

_symmetry_Int_Tables_number  19
_chemical_formula_structural  UO3
_chemical_formula_sum  U4O2
_cell_volume  213.2979592803339
_cell_formula_units_Z  4
loop_
  _symmetry_equiv_pos_site_id
 _symmetry_equiv_pos_as_xyz
 1  'x, y, z'
loop_
 _atom_site_type_symbol
 _atom_site_label
 _atom_site_symmetry_multiplicity
 _atom_site_fract_x
 _atom_site_fract_y
 _atom_site_fract_z
 _atom_site_fract_occupancy
 O  O1  1  0.91553  0.86506  0.57118  1
 O  O2  1  0.41553  0.63494  0.42882  1
 O  O3  1  0.08447  0.36506  0.92882  1
 O  O4  1  0.58447  0.13494  0.07118  1
 O  O5  1  0.92682  0.59793  0.25300  1
 O  O6  1  0.42682  0.90207  0.74700  1
 O  O7  1  0.07318  0.09793  0.24700  1
 O  O8  1  0.57318  0.40207  0.75300  1
 O  O9  1  0.03756  0.35460  0.59140  1
 O  O10  1  0.53756  0.14540  0.40860  1
 O  O11  1  0.96244  0.85460  0.90860  1
 O  O12  1  0.46244  0.64540  0.09140  1
 U  U1  1  0.28428  0.37527  0.19223  1
 U  U2  1  0.78428  0.12473  0.80777  1
 U  U3  1  0.71572  0.87527  0.30777  1
 U  U4  1  0.21572  0.62473  0.69223  1
