CIF file written using JARVIS-Tools package.
data_PdPbO2
_symmetry_space_group_name_H-M  'Imma'
_cell_length_a       4.69965
_cell_length_b       5.51846
_cell_length_c       5.9934
_cell_angle_alpha    117.412
_cell_angle_beta     113.083
_cell_angle_gamma    90

_symmetry_Int_Tables_number  74
_chemical_formula_structural  PdPbO2
_chemical_formula_sum  Pd2Pb2O4
_cell_volume  123.79870475933323
_cell_formula_units_Z  2
loop_
  _symmetry_equiv_pos_site_id
 _symmetry_equiv_pos_as_xyz
 1  'x, y, z'
loop_
 _atom_site_type_symbol
 _atom_site_label
 _atom_site_symmetry_multiplicity
 _atom_site_fract_x
 _atom_site_fract_y
 _atom_site_fract_z
 _atom_site_fract_occupancy
 O  O1  1  0.65034  0.15034  0.30067  1
 O  O2  1  0.34966  0.34966  0.69933  1
 O  O3  1  0.65034  0.65034  0.30067  1
 O  O4  1  0.34966  0.84966  0.69933  1
 Pb  Pb1  1  0.77815  0.25000  0.00000  1
 Pb  Pb2  1  0.22185  0.75000  -0.00000  1
 Pd  Pd1  1  0.50000  0.50000  0.50000  1
 Pd  Pd2  1  0.00000  -0.00000  0.50000  1
