CIF file written using JARVIS-Tools package.
data_CaTiO2
_symmetry_space_group_name_H-M  'C2/m'
_cell_length_a       3.01451
_cell_length_b       8.29014
_cell_length_c       8.32792
_cell_angle_alpha    95.221
_cell_angle_beta     89.9988
_cell_angle_gamma    100.473

_symmetry_Int_Tables_number  12
_chemical_formula_structural  CaTiO2
_chemical_formula_sum  Ca4Ti4O8
_cell_volume  203.77517584201505
_cell_formula_units_Z  4
loop_
  _symmetry_equiv_pos_site_id
 _symmetry_equiv_pos_as_xyz
 1  'x, y, z'
loop_
 _atom_site_type_symbol
 _atom_site_label
 _atom_site_symmetry_multiplicity
 _atom_site_fract_x
 _atom_site_fract_y
 _atom_site_fract_z
 _atom_site_fract_occupancy
 Ca  Ca1  1  0.73109  0.96222  0.32668  1
 Ca  Ca2  1  0.26891  0.03778  0.67332  1
 Ca  Ca3  1  0.87639  0.25294  0.05958  1
 Ca  Ca4  1  0.12361  0.74706  0.94042  1
 O  O1  1  0.85222  0.20434  0.53299  1
 O  O2  1  0.52975  0.55925  0.80512  1
 O  O3  1  0.47025  0.44075  0.19488  1
 O  O4  1  0.14778  0.79566  0.46701  1
 O  O5  1  0.68656  0.87307  0.77459  1
 O  O6  1  0.61804  0.73607  0.15901  1
 O  O7  1  0.31344  0.12693  0.22541  1
 O  O8  1  0.38196  0.26393  0.84099  1
 Ti  Ti1  1  0.58428  0.66831  0.59726  1
 Ti  Ti2  1  0.05034  0.60085  0.27847  1
 Ti  Ti3  1  0.94966  0.39915  0.72153  1
 Ti  Ti4  1  0.41572  0.33169  0.40274  1
