CIF file written using JARVIS-Tools package.
data_LiY3WO8
_symmetry_space_group_name_H-M  'P2'
_cell_length_a       5.90768
_cell_length_b       5.92981
_cell_length_c       6.13449
_cell_angle_alpha    90
_cell_angle_beta     116.688
_cell_angle_gamma    90

_symmetry_Int_Tables_number  3
_chemical_formula_structural  LiY3WO8
_chemical_formula_sum  LiY3WO8
_cell_volume  192.0061766180984
_cell_formula_units_Z  1
loop_
  _symmetry_equiv_pos_site_id
 _symmetry_equiv_pos_as_xyz
 1  'x, y, z'
loop_
 _atom_site_type_symbol
 _atom_site_label
 _atom_site_symmetry_multiplicity
 _atom_site_fract_x
 _atom_site_fract_y
 _atom_site_fract_z
 _atom_site_fract_occupancy
 Li  Li1  1  0.00000  0.25266  0.50000  1
 O  O1  1  0.80394  0.77855  0.06226  1
 O  O2  1  0.72243  0.47028  0.39820  1
 O  O3  1  0.19606  0.77855  0.93774  1
 O  O4  1  0.26098  0.22928  0.06597  1
 O  O5  1  0.15658  0.02108  0.36747  1
 O  O6  1  0.27757  0.47028  0.60180  1
 O  O7  1  0.73902  0.22928  0.93403  1
 O  O8  1  0.84342  0.02108  0.63253  1
 W  W1  1  0.00000  0.00845  0.00000  1
 Y  Y1  1  0.50000  0.50939  0.00000  1
 Y  Y2  1  0.00000  0.74150  0.50000  1
 Y  Y3  1  0.50000  0.23959  0.50000  1
