CIF file written using JARVIS-Tools package.
data_Mn3FeO8
_symmetry_space_group_name_H-M  'P6_3mc'
_cell_length_a       5.66985
_cell_length_b       5.66982
_cell_length_c       8.60549
_cell_angle_alpha    90.0038
_cell_angle_beta     89.9981
_cell_angle_gamma    120

_symmetry_Int_Tables_number  186
_chemical_formula_structural  Mn3FeO8
_chemical_formula_sum  Mn6Fe2O6
_cell_volume  239.57874607182242
_cell_formula_units_Z  2
loop_
  _symmetry_equiv_pos_site_id
 _symmetry_equiv_pos_as_xyz
 1  'x, y, z'
loop_
 _atom_site_type_symbol
 _atom_site_label
 _atom_site_symmetry_multiplicity
 _atom_site_fract_x
 _atom_site_fract_y
 _atom_site_fract_z
 _atom_site_fract_occupancy
 Fe  Fe1  1  0.33333  0.66666  0.48871  1
 Fe  Fe2  1  0.66667  0.33333  0.98871  1
 Mn  Mn1  1  0.16733  0.83269  0.20931  1
 Mn  Mn2  1  0.16732  0.33465  0.20928  1
 Mn  Mn3  1  0.66536  0.83270  0.20929  1
 Mn  Mn4  1  0.33464  0.16733  0.70929  1
 Mn  Mn5  1  0.83267  0.66537  0.70931  1
 Mn  Mn6  1  0.83268  0.16733  0.70928  1
 O  O1  1  0.17003  0.82995  0.60037  1
 O  O2  1  0.04476  0.52239  0.34166  1
 O  O3  1  0.33334  0.66667  0.09558  1
 O  O4  1  0.95524  0.47764  0.84166  1
 O  O5  1  1.00000  0.00004  0.81960  1
 O  O6  1  0.17005  0.34008  0.60036  1
 O  O7  1  0.00000  0.00004  0.31960  1
 O  O8  1  0.52238  0.47764  0.84168  1
 O  O9  1  0.34009  0.17003  0.10037  1
 O  O10  1  0.65991  0.82994  0.60037  1
 O  O11  1  0.47762  0.95526  0.34168  1
 O  O12  1  0.52238  0.04477  0.84165  1
 O  O13  1  0.66666  0.33333  0.59558  1
 O  O14  1  0.82997  0.65992  0.10037  1
 O  O15  1  0.47762  0.52239  0.34165  1
 O  O16  1  0.82995  0.17004  0.10036  1
