CIF file written using JARVIS-Tools package.
data_CdAuO2
_symmetry_space_group_name_H-M  'Cmmm'
_cell_length_a       3.18439
_cell_length_b       6.24974
_cell_length_c       6.66038
_cell_angle_alpha    117.981
_cell_angle_beta     90
_cell_angle_gamma    90

_symmetry_Int_Tables_number  65
_chemical_formula_structural  CdAuO2
_chemical_formula_sum  Cd2Au2O4
_cell_volume  117.05756520664819
_cell_formula_units_Z  2
loop_
  _symmetry_equiv_pos_site_id
 _symmetry_equiv_pos_as_xyz
 1  'x, y, z'
loop_
 _atom_site_type_symbol
 _atom_site_label
 _atom_site_symmetry_multiplicity
 _atom_site_fract_x
 _atom_site_fract_y
 _atom_site_fract_z
 _atom_site_fract_occupancy
 Au  Au1  1  0.00000  0.00000  0.00000  1
 Au  Au2  1  0.00000  0.50000  -0.00000  1
 Cd  Cd1  1  0.50000  0.50000  0.50000  1
 Cd  Cd2  1  0.50000  0.00000  0.50000  1
 O  O1  1  0.00000  0.17616  0.35232  1
 O  O2  1  0.00000  0.82384  0.64768  1
 O  O3  1  0.50000  0.39113  0.78226  1
 O  O4  1  0.50000  0.60887  0.21774  1
