CIF file written using JARVIS-Tools package.
data_SrMgH4
_symmetry_space_group_name_H-M  'Cmc2_1'
_cell_length_a       7.03915
_cell_length_b       7.03915
_cell_length_c       5.57211
_cell_angle_alpha    90
_cell_angle_beta     90
_cell_angle_gamma    32.6548

_symmetry_Int_Tables_number  36
_chemical_formula_structural  SrMgH4
_chemical_formula_sum  Sr2Mg2H8
_cell_volume  148.97500805041955
_cell_formula_units_Z  2
loop_
  _symmetry_equiv_pos_site_id
 _symmetry_equiv_pos_as_xyz
 1  'x, y, z'
loop_
 _atom_site_type_symbol
 _atom_site_label
 _atom_site_symmetry_multiplicity
 _atom_site_fract_x
 _atom_site_fract_y
 _atom_site_fract_z
 _atom_site_fract_occupancy
 H  H1  1  0.66669  0.66669  0.98544  1
 H  H2  1  0.33331  0.33331  0.48544  1
 H  H3  1  0.70074  0.70074  0.50616  1
 H  H4  1  0.29926  0.29926  0.00616  1
 H  H5  1  0.92485  0.92485  0.17998  1
 H  H6  1  0.07515  0.07515  0.67998  1
 H  H7  1  0.46163  0.46163  0.86684  1
 H  H8  1  0.53837  0.53837  0.36684  1
 Mg  Mg1  1  0.58508  0.58508  0.70930  1
 Mg  Mg2  1  0.41492  0.41492  0.20930  1
 Sr  Sr1  1  0.84876  0.84876  0.75328  1
 Sr  Sr2  1  0.15124  0.15124  0.25328  1
