CIF file written using JARVIS-Tools package.
data_NaMoO3
_symmetry_space_group_name_H-M  'R-3c'
_cell_length_a       5.46399
_cell_length_b       5.46399
_cell_length_c       5.47544
_cell_angle_alpha    60.0692
_cell_angle_beta     60.0692
_cell_angle_gamma    60

_symmetry_Int_Tables_number  167
_chemical_formula_structural  NaMoO3
_chemical_formula_sum  Na2Mo2O6
_cell_volume  115.71159830668037
_cell_formula_units_Z  2
loop_
  _symmetry_equiv_pos_site_id
 _symmetry_equiv_pos_as_xyz
 1  'x, y, z'
loop_
 _atom_site_type_symbol
 _atom_site_label
 _atom_site_symmetry_multiplicity
 _atom_site_fract_x
 _atom_site_fract_y
 _atom_site_fract_z
 _atom_site_fract_occupancy
 Mo  Mo1  1  0.00570  0.00570  0.98290  1
 Mo  Mo2  1  0.50570  0.50570  0.48290  1
 Na  Na1  1  0.25571  0.25571  0.23286  1
 Na  Na2  1  0.75571  0.75571  0.73286  1
 O  O1  1  0.71118  0.80021  0.23291  1
 O  O2  1  0.25569  0.71118  0.23291  1
 O  O3  1  0.80021  0.25569  0.23291  1
 O  O4  1  0.75569  0.30021  0.73291  1
 O  O5  1  0.30021  0.21118  0.73291  1
 O  O6  1  0.21118  0.75569  0.73291  1
