CIF file written using JARVIS-Tools package.
data_Fe3S4
_symmetry_space_group_name_H-M  'Fd-3m'
_cell_length_a       6.68452
_cell_length_b       6.68452
_cell_length_c       6.68452
_cell_angle_alpha    60
_cell_angle_beta     60
_cell_angle_gamma    60

_symmetry_Int_Tables_number  227
_chemical_formula_structural  Fe3S4
_chemical_formula_sum  Fe6S8
_cell_volume  211.20115234885662
_cell_formula_units_Z  2
loop_
  _symmetry_equiv_pos_site_id
 _symmetry_equiv_pos_as_xyz
 1  'x, y, z'
loop_
 _atom_site_type_symbol
 _atom_site_label
 _atom_site_symmetry_multiplicity
 _atom_site_fract_x
 _atom_site_fract_y
 _atom_site_fract_z
 _atom_site_fract_occupancy
 Fe  Fe1  1  0.50000  0.00000  0.50000  1
 Fe  Fe2  1  0.00000  0.50000  0.50000  1
 Fe  Fe3  1  0.50000  0.50000  0.00000  1
 Fe  Fe4  1  0.50000  0.50000  0.50000  1
 Fe  Fe5  1  0.87500  0.87500  0.87500  1
 Fe  Fe6  1  0.12500  0.12500  0.12500  1
 S  S1  1  0.74471  0.74471  0.74471  1
 S  S2  1  0.25529  0.25529  0.73414  1
 S  S3  1  0.25529  0.73414  0.25529  1
 S  S4  1  0.73414  0.25529  0.25529  1
 S  S5  1  0.74471  0.26586  0.74471  1
 S  S6  1  0.26586  0.74471  0.74471  1
 S  S7  1  0.25529  0.25529  0.25529  1
 S  S8  1  0.74471  0.74471  0.26586  1
