CIF file written using JARVIS-Tools package.
data_LiPH2O2
_symmetry_space_group_name_H-M  'C2/m'
_cell_length_a       5.40925
_cell_length_b       5.40925
_cell_length_c       6.42203
_cell_angle_alpha    72.6812
_cell_angle_beta     107.319
_cell_angle_gamma    122.163

_symmetry_Int_Tables_number  12
_chemical_formula_structural  LiPH2O2
_chemical_formula_sum  Li2P2H4O4
_cell_volume  149.58991396673528
_cell_formula_units_Z  2
loop_
  _symmetry_equiv_pos_site_id
 _symmetry_equiv_pos_as_xyz
 1  'x, y, z'
loop_
 _atom_site_type_symbol
 _atom_site_label
 _atom_site_symmetry_multiplicity
 _atom_site_fract_x
 _atom_site_fract_y
 _atom_site_fract_z
 _atom_site_fract_occupancy
 H  H1  1  0.93352  0.63845  0.57386  1
 H  H2  1  0.36155  0.06648  0.57386  1
 H  H3  1  0.06648  0.36155  0.42614  1
 H  H4  1  0.63845  0.93352  0.42614  1
 Li  Li1  1  0.25024  0.25024  0.00000  1
 Li  Li2  1  0.74976  0.74976  0.00000  1
 O  O1  1  0.08687  0.91313  0.85982  1
 O  O2  1  0.91313  0.08687  0.14018  1
 O  O3  1  0.35629  0.64371  0.83309  1
 O  O4  1  0.64371  0.35629  0.16691  1
 P  P1  1  0.18712  0.81288  0.71878  1
 P  P2  1  0.81288  0.18712  0.28122  1
