CIF file written using JARVIS-Tools package.
data_VFeH2O5
_symmetry_space_group_name_H-M  'P-1'
_cell_length_a       5.25404
_cell_length_b       5.59955
_cell_length_c       6.41612
_cell_angle_alpha    101.835
_cell_angle_beta     95.0302
_cell_angle_gamma    106.758

_symmetry_Int_Tables_number  2
_chemical_formula_structural  VFeH2O5
_chemical_formula_sum  V2Fe2H4O0
_cell_volume  174.72111360087914
_cell_formula_units_Z  2
loop_
  _symmetry_equiv_pos_site_id
 _symmetry_equiv_pos_as_xyz
 1  'x, y, z'
loop_
 _atom_site_type_symbol
 _atom_site_label
 _atom_site_symmetry_multiplicity
 _atom_site_fract_x
 _atom_site_fract_y
 _atom_site_fract_z
 _atom_site_fract_occupancy
 Fe  Fe1  1  0.62773  0.20612  0.69211  1
 Fe  Fe2  1  0.37227  0.79388  0.30789  1
 H  H1  1  0.07820  0.11607  0.70150  1
 H  H2  1  0.92180  0.88393  0.29850  1
 H  H3  1  0.85094  0.85108  0.70518  1
 H  H4  1  0.14906  0.14892  0.29482  1
 O  O1  1  0.90700  0.51956  0.73048  1
 O  O2  1  0.09698  0.95888  0.25077  1
 O  O3  1  0.60123  0.25980  0.98141  1
 O  O4  1  0.39877  0.74020  0.01859  1
 O  O5  1  0.64206  0.64441  0.34758  1
 O  O6  1  0.63417  0.12813  0.38671  1
 O  O7  1  0.90302  0.04112  0.74923  1
 O  O8  1  0.09300  0.48044  0.26952  1
 O  O9  1  0.35794  0.35559  0.65242  1
 O  O10  1  0.36583  0.87187  0.61329  1
 V  V1  1  0.74389  0.38146  0.24292  1
 V  V2  1  0.25611  0.61854  0.75708  1
