CIF file written using JARVIS-Tools package.
data_Li2CrPO4F
_symmetry_space_group_name_H-M  'P1'
_cell_length_a       5.22034
_cell_length_b       5.5184
_cell_length_c       7.46871
_cell_angle_alpha    107.327
_cell_angle_beta     107.004
_cell_angle_gamma    93.8425

_symmetry_Int_Tables_number  1
_chemical_formula_structural  Li2CrPO4F
_chemical_formula_sum  Li4Cr2P2O8F2
_cell_volume  193.59540150250146
_cell_formula_units_Z  2
loop_
  _symmetry_equiv_pos_site_id
 _symmetry_equiv_pos_as_xyz
 1  'x, y, z'
loop_
 _atom_site_type_symbol
 _atom_site_label
 _atom_site_symmetry_multiplicity
 _atom_site_fract_x
 _atom_site_fract_y
 _atom_site_fract_z
 _atom_site_fract_occupancy
 Cr  Cr1  1  0.00803  0.99449  0.50980  1
 Cr  Cr2  1  -0.00174  0.00451  0.02230  1
 F  F1  1  0.15903  0.85208  0.29151  1
 F  F2  1  0.83813  0.13376  0.72380  1
 Li  Li1  1  0.11469  0.53490  0.09463  1
 Li  Li2  1  0.50081  0.88283  0.46719  1
 Li  Li3  1  0.52593  0.21544  0.85347  1
 Li  Li4  1  0.75323  0.44326  0.64391  1
 O  O1  1  0.68538  0.59659  0.41129  1
 O  O2  1  0.63958  0.78817  0.96389  1
 O  O3  1  0.83625  0.32143  0.12786  1
 O  O4  1  0.69224  0.13406  0.36557  1
 O  O5  1  0.37667  0.40731  0.67230  1
 O  O6  1  0.32279  0.87064  0.67202  1
 O  O7  1  0.12076  0.67595  0.87706  1
 O  O8  1  0.34947  0.26299  0.09610  1
 P  P1  1  0.64113  0.33027  0.25295  1
 P  P2  1  0.36551  0.68296  0.79576  1
