CIF file written using JARVIS-Tools package.
data_LiMnFeF6
_symmetry_space_group_name_H-M  'P321'
_cell_length_a       8.56836
_cell_length_b       8.56836
_cell_length_c       4.64426
_cell_angle_alpha    90
_cell_angle_beta     90
_cell_angle_gamma    120

_symmetry_Int_Tables_number  150
_chemical_formula_structural  LiMnFeF6
_chemical_formula_sum  Li3Mn3Fe3F8
_cell_volume  295.2859937684937
_cell_formula_units_Z  3
loop_
  _symmetry_equiv_pos_site_id
 _symmetry_equiv_pos_as_xyz
 1  'x, y, z'
loop_
 _atom_site_type_symbol
 _atom_site_label
 _atom_site_symmetry_multiplicity
 _atom_site_fract_x
 _atom_site_fract_y
 _atom_site_fract_z
 _atom_site_fract_occupancy
 F  F1  1  0.54436  0.76513  0.27573  1
 F  F2  1  0.21262  0.10052  0.22386  1
 F  F3  1  0.88789  0.78738  0.22386  1
 F  F4  1  0.89948  0.11211  0.22386  1
 F  F5  1  0.78738  0.88789  0.77614  1
 F  F6  1  0.76513  0.54436  0.72427  1
 F  F7  1  0.11211  0.89948  0.77614  1
 F  F8  1  0.58005  0.12391  0.26861  1
 F  F9  1  0.10052  0.21262  0.77614  1
 F  F10  1  0.54386  0.41995  0.26861  1
 F  F11  1  0.12391  0.58005  0.73139  1
 F  F12  1  0.45614  0.87609  0.73139  1
 F  F13  1  0.87609  0.45614  0.26861  1
 F  F14  1  0.77923  0.23487  0.72427  1
 F  F15  1  0.22077  0.45564  0.27573  1
 F  F16  1  0.45564  0.22077  0.72427  1
 F  F17  1  0.41995  0.54386  0.73139  1
 F  F18  1  0.23487  0.77923  0.27573  1
 Fe  Fe1  1  0.66667  0.33333  0.49732  1
 Fe  Fe2  1  0.00000  0.00000  0.00000  1
 Fe  Fe3  1  0.33333  0.66667  0.50268  1
 Li  Li1  1  0.29811  0.29811  0.50000  1
 Li  Li2  1  0.70189  -0.00000  0.50000  1
 Li  Li3  1  -0.00000  0.70189  0.50000  1
 Mn  Mn1  1  0.00000  0.36180  0.00000  1
 Mn  Mn2  1  0.63820  0.63820  0.00000  1
 Mn  Mn3  1  0.36180  0.00000  0.00000  1
