CIF file written using JARVIS-Tools package.
data_Li2MnCo3O8
_symmetry_space_group_name_H-M  'P6_3mc'
_cell_length_a       5.64304
_cell_length_b       5.64297
_cell_length_c       9.05363
_cell_angle_alpha    89.9975
_cell_angle_beta     90.0012
_cell_angle_gamma    119.999

_symmetry_Int_Tables_number  186
_chemical_formula_structural  Li2MnCo3O8
_chemical_formula_sum  Li4Mn2Co6O6
_cell_volume  249.67573360970144
_cell_formula_units_Z  2
loop_
  _symmetry_equiv_pos_site_id
 _symmetry_equiv_pos_as_xyz
 1  'x, y, z'
loop_
 _atom_site_type_symbol
 _atom_site_label
 _atom_site_symmetry_multiplicity
 _atom_site_fract_x
 _atom_site_fract_y
 _atom_site_fract_z
 _atom_site_fract_occupancy
 Co  Co1  1  0.17025  0.34055  0.21286  1
 Co  Co2  1  0.65943  0.82972  0.21286  1
 Co  Co3  1  0.17025  0.82972  0.21285  1
 Co  Co4  1  0.34057  0.17029  0.71286  1
 Co  Co5  1  0.82975  0.65947  0.71285  1
 Co  Co6  1  0.82975  0.17029  0.71286  1
 Li  Li1  1  0.33335  0.66669  0.89465  1
 Li  Li2  1  0.66665  0.33334  0.39465  1
 Li  Li3  1  0.00008  0.00006  0.49834  1
 Li  Li4  1  0.99992  -0.00002  0.99834  1
 Mn  Mn1  1  0.33335  0.66669  0.48950  1
 Mn  Mn2  1  0.66665  0.33334  0.98950  1
 O  O1  1  0.16645  0.33287  0.59929  1
 O  O2  1  0.16645  0.83360  0.59928  1
 O  O3  1  0.95988  0.47994  0.84036  1
 O  O4  1  0.33332  0.66668  0.10667  1
 O  O5  1  -0.00002  -0.00001  0.30728  1
 O  O6  1  0.00002  0.00001  0.80728  1
 O  O7  1  0.04012  0.52007  0.34036  1
 O  O8  1  0.83355  0.66714  0.09928  1
 O  O9  1  0.66720  0.83362  0.59926  1
 O  O10  1  0.52009  0.47996  0.84035  1
 O  O11  1  0.52009  0.04014  0.84036  1
 O  O12  1  0.66668  0.33336  0.60667  1
 O  O13  1  0.47991  0.95988  0.34035  1
 O  O14  1  0.33280  0.16642  0.09926  1
 O  O15  1  0.47991  0.52005  0.34036  1
 O  O16  1  0.83355  0.16643  0.09929  1
