CIF file written using JARVIS-Tools package.
data_YCu2O4
_symmetry_space_group_name_H-M  'I4_1/a'
_cell_length_a       5.674
_cell_length_b       5.67391
_cell_length_c       6.2749
_cell_angle_alpha    116.878
_cell_angle_beta     116.879
_cell_angle_gamma    90.0014

_symmetry_Int_Tables_number  88
_chemical_formula_structural  YCu2O4
_chemical_formula_sum  Y2Cu4O8
_cell_volume  155.32568785209946
_cell_formula_units_Z  2
loop_
  _symmetry_equiv_pos_site_id
 _symmetry_equiv_pos_as_xyz
 1  'x, y, z'
loop_
 _atom_site_type_symbol
 _atom_site_label
 _atom_site_symmetry_multiplicity
 _atom_site_fract_x
 _atom_site_fract_y
 _atom_site_fract_z
 _atom_site_fract_occupancy
 Cu  Cu1  1  0.50000  0.00000  -0.00000  1
 Cu  Cu2  1  0.50000  0.50000  -0.00000  1
 Cu  Cu3  1  -0.00000  0.50000  0.50000  1
 Cu  Cu4  1  0.50000  0.50000  0.50000  1
 O  O1  1  0.71970  0.52980  0.85448  1
 O  O2  1  0.13478  0.82468  0.85448  1
 O  O3  1  0.28030  0.47020  0.14552  1
 O  O4  1  0.86522  0.17532  0.14552  1
 O  O5  1  0.52980  0.13477  0.35447  1
 O  O6  1  0.82467  0.71970  0.35447  1
 O  O7  1  0.17533  0.28030  0.64553  1
 O  O8  1  0.47020  0.86523  0.64553  1
 Y  Y1  1  0.87500  0.12500  0.75000  1
 Y  Y2  1  0.12500  0.87500  0.25000  1
