CIF file written using JARVIS-Tools package.
data_SiO2
_symmetry_space_group_name_H-M  'C2'
_cell_length_a       5.38676
_cell_length_b       5.38676
_cell_length_c       6.844
_cell_angle_alpha    105.562
_cell_angle_beta     105.562
_cell_angle_gamma    102.392

_symmetry_Int_Tables_number  5
_chemical_formula_structural  SiO2
_chemical_formula_sum  Si4O8
_cell_volume  175.29270020045166
_cell_formula_units_Z  4
loop_
  _symmetry_equiv_pos_site_id
 _symmetry_equiv_pos_as_xyz
 1  'x, y, z'
loop_
 _atom_site_type_symbol
 _atom_site_label
 _atom_site_symmetry_multiplicity
 _atom_site_fract_x
 _atom_site_fract_y
 _atom_site_fract_z
 _atom_site_fract_occupancy
 O  O1  1  0.02332  0.41774  0.25438  1
 O  O2  1  0.26848  0.10440  0.42661  1
 O  O3  1  0.89560  0.73152  0.57339  1
 O  O4  1  0.04331  0.95669  -0.00000  1
 O  O5  1  0.62124  0.50277  0.78629  1
 O  O6  1  0.49723  0.37876  0.21371  1
 O  O7  1  0.78701  0.21299  0.50000  1
 O  O8  1  0.58226  -0.02332  0.74562  1
 Si  Si1  1  0.78672  0.79256  0.77859  1
 Si  Si2  1  0.56018  0.19254  0.62095  1
 Si  Si3  1  0.80746  0.43982  0.37905  1
 Si  Si4  1  0.20744  0.21328  0.22141  1
