CIF file written using JARVIS-Tools package.
data_NaMn2O4
_symmetry_space_group_name_H-M  'Cmcm'
_cell_length_a       2.94705
_cell_length_b       5.06885
_cell_length_c       9.70414
_cell_angle_alpha    90.0007
_cell_angle_beta     89.9981
_cell_angle_gamma    106.898

_symmetry_Int_Tables_number  63
_chemical_formula_structural  NaMn2O4
_chemical_formula_sum  Na2Mn4O8
_cell_volume  138.702823416581
_cell_formula_units_Z  2
loop_
  _symmetry_equiv_pos_site_id
 _symmetry_equiv_pos_as_xyz
 1  'x, y, z'
loop_
 _atom_site_type_symbol
 _atom_site_label
 _atom_site_symmetry_multiplicity
 _atom_site_fract_x
 _atom_site_fract_y
 _atom_site_fract_z
 _atom_site_fract_occupancy
 Mn  Mn1  1  0.64065  0.77219  0.07214  1
 Mn  Mn2  1  0.36840  0.22781  0.57214  1
 Mn  Mn3  1  0.64053  0.77215  0.42787  1
 Mn  Mn4  1  0.36850  0.22784  0.92786  1
 Na  Na1  1  0.11408  0.71910  0.75001  1
 Na  Na2  1  0.89492  0.28091  0.25001  1
 O  O1  1  0.26814  0.02737  0.39547  1
 O  O2  1  0.26827  0.02740  0.10454  1
 O  O3  1  0.74077  0.97259  0.60454  1
 O  O4  1  0.74088  0.97263  0.89547  1
 O  O5  1  0.43824  0.36741  0.75000  1
 O  O6  1  0.57075  0.63259  0.25000  1
 O  O7  1  0.00443  0.49998  0.50000  1
 O  O8  1  0.00454  0.50002  -0.00000  1
