CIF file written using JARVIS-Tools package.
data_V2InC
_symmetry_space_group_name_H-M  'P6_3/mmc'
_cell_length_a       3.0351
_cell_length_b       3.0351
_cell_length_c       13.524
_cell_angle_alpha    90
_cell_angle_beta     90
_cell_angle_gamma    120

_symmetry_Int_Tables_number  194
_chemical_formula_structural  V2InC
_chemical_formula_sum  V4In2C2
_cell_volume  107.89051497329383
_cell_formula_units_Z  2
loop_
  _symmetry_equiv_pos_site_id
 _symmetry_equiv_pos_as_xyz
 1  'x, y, z'
loop_
 _atom_site_type_symbol
 _atom_site_label
 _atom_site_symmetry_multiplicity
 _atom_site_fract_x
 _atom_site_fract_y
 _atom_site_fract_z
 _atom_site_fract_occupancy
 C  C1  1  0.00000  0.00000  0.00000  1
 C  C2  1  0.00000  0.00000  0.50000  1
 In  In1  1  0.33333  0.66667  0.75000  1
 In  In2  1  0.66667  0.33333  0.25000  1
 V  V1  1  0.33333  0.66667  0.07780  1
 V  V2  1  0.33333  0.66667  0.42220  1
 V  V3  1  0.66667  0.33333  0.57780  1
 V  V4  1  0.66667  0.33333  0.92220  1
