CIF file written using JARVIS-Tools package.
data_Na2BiO3
_symmetry_space_group_name_H-M  'C2/c'
_cell_length_a       5.94294
_cell_length_b       5.94294
_cell_length_c       11.2246
_cell_angle_alpha    85.1847
_cell_angle_beta     94.8153
_cell_angle_gamma    60.0956

_symmetry_Int_Tables_number  15
_chemical_formula_structural  Na2BiO3
_chemical_formula_sum  Na8Bi4O2
_cell_volume  338.7893670423314
_cell_formula_units_Z  4
loop_
  _symmetry_equiv_pos_site_id
 _symmetry_equiv_pos_as_xyz
 1  'x, y, z'
loop_
 _atom_site_type_symbol
 _atom_site_label
 _atom_site_symmetry_multiplicity
 _atom_site_fract_x
 _atom_site_fract_y
 _atom_site_fract_z
 _atom_site_fract_occupancy
 Bi  Bi1  1  0.75126  0.75126  0.75000  1
 Bi  Bi2  1  0.41846  0.41846  0.75000  1
 Bi  Bi3  1  0.24874  0.24874  0.25000  1
 Bi  Bi4  1  0.58154  0.58154  0.25000  1
 Na  Na1  1  0.84778  0.32017  0.99820  1
 Na  Na2  1  0.50000  0.00000  0.00000  1
 Na  Na3  1  0.15222  0.67983  0.00180  1
 Na  Na4  1  0.91518  0.91518  0.25000  1
 Na  Na5  1  0.08482  0.08482  0.75000  1
 Na  Na6  1  -0.00000  0.50000  0.50000  1
 Na  Na7  1  0.32017  0.84778  0.50180  1
 Na  Na8  1  0.67983  0.15222  0.49820  1
 O  O1  1  0.50608  0.29643  0.13489  1
 O  O2  1  0.41865  0.09316  0.63965  1
 O  O3  1  0.70357  0.49392  0.63489  1
 O  O4  1  0.29643  0.50608  0.36511  1
 O  O5  1  0.58135  0.90684  0.36035  1
 O  O6  1  0.22003  0.97813  0.13628  1
 O  O7  1  0.09316  0.41865  0.86035  1
 O  O8  1  0.02187  0.77997  0.63628  1
 O  O9  1  0.90684  0.58135  0.13965  1
 O  O10  1  0.77997  0.02187  0.86372  1
 O  O11  1  0.49392  0.70357  0.86511  1
 O  O12  1  0.97813  0.22003  0.36372  1
