CIF file written using JARVIS-Tools package.
data_Li6FeO4F2
_symmetry_space_group_name_H-M  'P-1'
_cell_length_a       5.43133
_cell_length_b       5.45215
_cell_length_c       5.61291
_cell_angle_alpha    61.3614
_cell_angle_beta     63.5857
_cell_angle_gamma    62.2163

_symmetry_Int_Tables_number  2
_chemical_formula_structural  Li6FeO4F2
_chemical_formula_sum  Li6FeO4F2
_cell_volume  123.6997912030461
_cell_formula_units_Z  1
loop_
  _symmetry_equiv_pos_site_id
 _symmetry_equiv_pos_as_xyz
 1  'x, y, z'
loop_
 _atom_site_type_symbol
 _atom_site_label
 _atom_site_symmetry_multiplicity
 _atom_site_fract_x
 _atom_site_fract_y
 _atom_site_fract_z
 _atom_site_fract_occupancy
 F  F1  1  0.77112  0.11652  0.40019  1
 F  F2  1  0.22888  0.88348  0.59981  1
 Fe  Fe1  1  0.00000  0.00000  0.00000  1
 Li  Li1  1  0.72099  0.49279  0.07150  1
 Li  Li2  1  0.49162  0.08985  0.74960  1
 Li  Li3  1  0.91518  0.30102  0.51993  1
 Li  Li4  1  0.08482  0.69898  0.48007  1
 Li  Li5  1  0.50838  0.91015  0.25040  1
 Li  Li6  1  0.27901  0.50721  0.92850  1
 O  O1  1  0.34810  0.79151  0.08397  1
 O  O2  1  0.90236  0.65711  0.20462  1
 O  O3  1  0.09764  0.34289  0.79538  1
 O  O4  1  0.65190  0.20849  0.91603  1
