CIF file written using JARVIS-Tools package.
data_TmH3O3
_symmetry_space_group_name_H-M  'P6_3/m'
_cell_length_a       6.21045
_cell_length_b       6.21045
_cell_length_c       3.46632
_cell_angle_alpha    90
_cell_angle_beta     90
_cell_angle_gamma    120

_symmetry_Int_Tables_number  176
_chemical_formula_structural  TmH3O3
_chemical_formula_sum  Tm2H6O6
_cell_volume  115.78329974545058
_cell_formula_units_Z  2
loop_
  _symmetry_equiv_pos_site_id
 _symmetry_equiv_pos_as_xyz
 1  'x, y, z'
loop_
 _atom_site_type_symbol
 _atom_site_label
 _atom_site_symmetry_multiplicity
 _atom_site_fract_x
 _atom_site_fract_y
 _atom_site_fract_z
 _atom_site_fract_occupancy
 H  H1  1  0.27493  0.14218  0.75000  1
 H  H2  1  0.85782  0.13275  0.75000  1
 H  H3  1  0.86725  0.72507  0.75000  1
 H  H4  1  0.72507  0.85782  0.25000  1
 H  H5  1  0.14218  0.86725  0.25000  1
 H  H6  1  0.13275  0.27493  0.25000  1
 O  O1  1  0.39554  0.08502  0.75000  1
 O  O2  1  0.91498  0.31051  0.75000  1
 O  O3  1  0.68949  0.60446  0.75000  1
 O  O4  1  0.60446  0.91498  0.25000  1
 O  O5  1  0.08502  0.68949  0.25000  1
 O  O6  1  0.31051  0.39554  0.25000  1
 Tm  Tm1  1  0.33333  0.66667  0.75000  1
 Tm  Tm2  1  0.66667  0.33333  0.25000  1
