CIF file written using JARVIS-Tools package.
data_LiMnF4
_symmetry_space_group_name_H-M  'Cmmm'
_cell_length_a       4.54697
_cell_length_b       4.54697
_cell_length_c       6.28667
_cell_angle_alpha    90
_cell_angle_beta     90
_cell_angle_gamma    92.1774

_symmetry_Int_Tables_number  65
_chemical_formula_structural  LiMnF4
_chemical_formula_sum  Li2Mn2F8
_cell_volume  129.88241336411062
_cell_formula_units_Z  2
loop_
  _symmetry_equiv_pos_site_id
 _symmetry_equiv_pos_as_xyz
 1  'x, y, z'
loop_
 _atom_site_type_symbol
 _atom_site_label
 _atom_site_symmetry_multiplicity
 _atom_site_fract_x
 _atom_site_fract_y
 _atom_site_fract_z
 _atom_site_fract_occupancy
 F  F1  1  0.19577  0.80427  0.75000  1
 F  F2  1  0.19573  0.80423  0.25000  1
 F  F3  1  0.70984  0.70984  0.50002  1
 F  F4  1  0.29016  0.29016  0.00002  1
 F  F5  1  0.70984  0.70984  -0.00002  1
 F  F6  1  0.29016  0.29016  0.49998  1
 F  F7  1  0.80423  0.19573  0.25000  1
 F  F8  1  0.80427  0.19577  0.75000  1
 Li  Li1  1  0.49992  0.49992  0.25000  1
 Li  Li2  1  0.50008  0.50008  0.75000  1
 Mn  Mn1  1  0.00000  0.00000  0.00000  1
 Mn  Mn2  1  0.00000  0.00000  0.50000  1
