CIF file written using JARVIS-Tools package.
data_AgP2
_symmetry_space_group_name_H-M  'P2_1/c'
_cell_length_a       6.23894
_cell_length_b       5.1179
_cell_length_c       7.9054
_cell_angle_alpha    90
_cell_angle_beta     113.402
_cell_angle_gamma    90

_symmetry_Int_Tables_number  14
_chemical_formula_structural  AgP2
_chemical_formula_sum  Ag4P8
_cell_volume  231.65688328306484
_cell_formula_units_Z  4
loop_
  _symmetry_equiv_pos_site_id
 _symmetry_equiv_pos_as_xyz
 1  'x, y, z'
loop_
 _atom_site_type_symbol
 _atom_site_label
 _atom_site_symmetry_multiplicity
 _atom_site_fract_x
 _atom_site_fract_y
 _atom_site_fract_z
 _atom_site_fract_occupancy
 Ag  Ag1  1  0.14147  0.95311  0.90041  1
 Ag  Ag2  1  0.85853  0.45311  0.59959  1
 Ag  Ag3  1  0.85853  0.04689  0.09959  1
 Ag  Ag4  1  0.14147  0.54689  0.40041  1
 P  P1  1  0.40974  0.59619  0.08293  1
 P  P2  1  0.59026  0.09619  0.41707  1
 P  P3  1  0.59026  0.40381  0.91707  1
 P  P4  1  0.40974  0.90381  0.58293  1
 P  P5  1  0.27449  0.22995  0.69963  1
 P  P6  1  0.72551  0.72995  0.80037  1
 P  P7  1  0.72551  0.77005  0.30037  1
 P  P8  1  0.27449  0.27005  0.19963  1
