CIF file written using JARVIS-Tools package.
data_V3O4F2
_symmetry_space_group_name_H-M  'P2_1'
_cell_length_a       5.497
_cell_length_b       4.62904
_cell_length_c       7.55432
_cell_angle_alpha    90
_cell_angle_beta     94.9946
_cell_angle_gamma    90

_symmetry_Int_Tables_number  4
_chemical_formula_structural  V3O4F2
_chemical_formula_sum  V6O8F4
_cell_volume  191.4966707530428
_cell_formula_units_Z  2
loop_
  _symmetry_equiv_pos_site_id
 _symmetry_equiv_pos_as_xyz
 1  'x, y, z'
loop_
 _atom_site_type_symbol
 _atom_site_label
 _atom_site_symmetry_multiplicity
 _atom_site_fract_x
 _atom_site_fract_y
 _atom_site_fract_z
 _atom_site_fract_occupancy
 F  F1  1  0.45081  0.80346  0.40024  1
 F  F2  1  0.88283  0.29845  0.93896  1
 F  F3  1  0.11717  0.79845  0.06104  1
 F  F4  1  0.54919  0.30346  0.59976  1
 O  O1  1  0.21902  0.29916  0.26178  1
 O  O2  1  0.71615  0.19463  0.27664  1
 O  O3  1  0.38025  0.19729  0.92607  1
 O  O4  1  0.05206  0.20134  0.59723  1
 O  O5  1  0.94794  0.70134  0.40277  1
 O  O6  1  0.61975  0.69729  0.07393  1
 O  O7  1  0.78098  0.79916  0.73822  1
 O  O8  1  0.28385  0.69463  0.72336  1
 V  V1  1  0.09218  0.98678  0.81102  1
 V  V2  1  0.43374  0.02917  0.15459  1
 V  V3  1  0.77273  0.98971  0.50837  1
 V  V4  1  0.90782  0.48678  0.18898  1
 V  V5  1  0.56626  0.52917  0.84541  1
 V  V6  1  0.22727  0.48971  0.49163  1
