CIF file written using JARVIS-Tools package.
data_LiFeCoO4
_symmetry_space_group_name_H-M  'Imma'
_cell_length_a       5.6807
_cell_length_b       5.6807
_cell_length_c       5.6807
_cell_angle_alpha    90.2838
_cell_angle_beta     120.701
_cell_angle_gamma    60.3698

_symmetry_Int_Tables_number  74
_chemical_formula_structural  LiFeCoO4
_chemical_formula_sum  Li2Fe2Co2O8
_cell_volume  129.28589151356124
_cell_formula_units_Z  2
loop_
  _symmetry_equiv_pos_site_id
 _symmetry_equiv_pos_as_xyz
 1  'x, y, z'
loop_
 _atom_site_type_symbol
 _atom_site_label
 _atom_site_symmetry_multiplicity
 _atom_site_fract_x
 _atom_site_fract_y
 _atom_site_fract_z
 _atom_site_fract_occupancy
 Co  Co1  1  0.50000  -0.00000  -0.00000  1
 Co  Co2  1  -0.00000  0.50000  -0.00000  1
 Fe  Fe1  1  0.50000  0.50000  -0.00000  1
 Fe  Fe2  1  0.00000  0.50000  0.50000  1
 Li  Li1  1  0.75000  0.12496  0.62504  1
 Li  Li2  1  0.25000  0.87504  0.37496  1
 O  O1  1  0.52508  0.73429  0.79079  1
 O  O2  1  0.97492  0.73429  0.24063  1
 O  O3  1  0.97460  0.28839  0.23701  1
 O  O4  1  0.52540  0.73760  0.23701  1
 O  O5  1  0.47460  0.26240  0.76299  1
 O  O6  1  0.02540  0.71161  0.76299  1
 O  O7  1  0.02508  0.26571  0.75937  1
 O  O8  1  0.47492  0.26571  0.20921  1
