CIF file written using JARVIS-Tools package.
data_Fe3H4O2F8
_symmetry_space_group_name_H-M  'C2/m'
_cell_length_a       5.27495
_cell_length_b       5.27495
_cell_length_c       7.41583
_cell_angle_alpha    71.0683
_cell_angle_beta     108.932
_cell_angle_gamma    90.8619

_symmetry_Int_Tables_number  12
_chemical_formula_structural  Fe3H4O2F8
_chemical_formula_sum  Fe3H4O2F8
_cell_volume  183.6846605183457
_cell_formula_units_Z  1
loop_
  _symmetry_equiv_pos_site_id
 _symmetry_equiv_pos_as_xyz
 1  'x, y, z'
loop_
 _atom_site_type_symbol
 _atom_site_label
 _atom_site_symmetry_multiplicity
 _atom_site_fract_x
 _atom_site_fract_y
 _atom_site_fract_z
 _atom_site_fract_occupancy
 F  F1  1  0.18309  0.18309  0.50000  1
 F  F2  1  0.65688  0.34312  0.43024  1
 F  F3  1  0.33666  0.06331  0.19840  1
 F  F4  1  0.93669  0.66334  0.19840  1
 F  F5  1  0.66334  0.93669  0.80160  1
 F  F6  1  0.06331  0.33666  0.80160  1
 F  F7  1  0.81691  0.81691  0.50000  1
 F  F8  1  0.34312  0.65688  0.56976  1
 Fe  Fe1  1  0.00000  0.00000  0.00000  1
 Fe  Fe2  1  0.50000  0.00000  0.50000  1
 Fe  Fe3  1  -0.00000  0.50000  0.50000  1
 H  H1  1  0.17109  0.61184  0.88496  1
 H  H2  1  0.38816  0.82891  0.88496  1
 H  H3  1  0.82891  0.38816  0.11504  1
 H  H4  1  0.61184  0.17109  0.11504  1
 O  O1  1  0.23749  0.76251  0.93384  1
 O  O2  1  0.76251  0.23749  0.06616  1
