CIF file written using JARVIS-Tools package.
data_K3ZnPCO7
_symmetry_space_group_name_H-M  'P2_1/m'
_cell_length_a       5.60071
_cell_length_b       6.81553
_cell_length_c       9.54474
_cell_angle_alpha    90
_cell_angle_beta     90.1959
_cell_angle_gamma    90

_symmetry_Int_Tables_number  11
_chemical_formula_structural  K3ZnPCO7
_chemical_formula_sum  K6Zn2P2C2O4
_cell_volume  364.33830907353513
_cell_formula_units_Z  2
loop_
  _symmetry_equiv_pos_site_id
 _symmetry_equiv_pos_as_xyz
 1  'x, y, z'
loop_
 _atom_site_type_symbol
 _atom_site_label
 _atom_site_symmetry_multiplicity
 _atom_site_fract_x
 _atom_site_fract_y
 _atom_site_fract_z
 _atom_site_fract_occupancy
 C  C1  1  0.74529  0.75000  0.08100  1
 C  C2  1  0.25471  0.25000  0.91900  1
 K  K1  1  0.75593  0.25000  0.07077  1
 K  K2  1  0.25522  0.00955  0.28459  1
 K  K3  1  0.25522  0.49045  0.28459  1
 K  K4  1  0.74478  0.50955  0.71541  1
 K  K5  1  0.74478  0.99045  0.71541  1
 K  K6  1  0.24407  0.75000  0.92923  1
 O  O1  1  0.05372  0.25000  0.84963  1
 O  O2  1  0.94628  0.75000  0.15037  1
 O  O3  1  0.54787  0.75000  0.15352  1
 O  O4  1  0.75940  0.06605  0.32432  1
 O  O5  1  0.75940  0.43395  0.32432  1
 O  O6  1  0.25845  0.25000  0.05438  1
 O  O7  1  0.07077  0.75000  0.46492  1
 O  O8  1  0.92923  0.25000  0.53508  1
 O  O9  1  0.45213  0.25000  0.84648  1
 O  O10  1  0.24060  0.56605  0.67568  1
 O  O11  1  0.24060  0.93395  0.67568  1
 O  O12  1  0.48359  0.25000  0.48854  1
 O  O13  1  0.51641  0.75000  0.51146  1
 O  O14  1  0.74155  0.75000  0.94562  1
 P  P1  1  0.73542  0.25000  0.41949  1
 P  P2  1  0.26458  0.75000  0.58051  1
 Zn  Zn1  1  0.24057  0.25000  0.64338  1
 Zn  Zn2  1  0.75943  0.75000  0.35662  1
