CIF file written using JARVIS-Tools package.
data_SrPb
_symmetry_space_group_name_H-M  'Cmcm'
_cell_length_a       4.6696
_cell_length_b       5.06193
_cell_length_c       6.62749
_cell_angle_alpha    112.451
_cell_angle_beta     90
_cell_angle_gamma    90

_symmetry_Int_Tables_number  63
_chemical_formula_structural  SrPb
_chemical_formula_sum  Sr2Pb2
_cell_volume  144.78199853115055
_cell_formula_units_Z  2
loop_
  _symmetry_equiv_pos_site_id
 _symmetry_equiv_pos_as_xyz
 1  'x, y, z'
loop_
 _atom_site_type_symbol
 _atom_site_label
 _atom_site_symmetry_multiplicity
 _atom_site_fract_x
 _atom_site_fract_y
 _atom_site_fract_z
 _atom_site_fract_occupancy
 Pb  Pb1  1  0.25000  0.58603  0.17207  1
 Pb  Pb2  1  0.75000  0.41397  0.82793  1
 Sr  Sr1  1  0.25000  0.86706  0.73413  1
 Sr  Sr2  1  0.75000  0.13294  0.26587  1
