CIF file written using JARVIS-Tools package.
data_TbMn6Sn6
_symmetry_space_group_name_H-M  'P6/mmm'
_cell_length_a       5.46103
_cell_length_b       5.46103
_cell_length_c       8.9683
_cell_angle_alpha    90
_cell_angle_beta     90
_cell_angle_gamma    120

_symmetry_Int_Tables_number  191
_chemical_formula_structural  TbMn6Sn6
_chemical_formula_sum  TbMn6Sn6
_cell_volume  231.62759773177973
_cell_formula_units_Z  1
loop_
  _symmetry_equiv_pos_site_id
 _symmetry_equiv_pos_as_xyz
 1  'x, y, z'
loop_
 _atom_site_type_symbol
 _atom_site_label
 _atom_site_symmetry_multiplicity
 _atom_site_fract_x
 _atom_site_fract_y
 _atom_site_fract_z
 _atom_site_fract_occupancy
 Mn  Mn1  1  -0.00000  0.50000  0.75156  1
 Mn  Mn2  1  0.50000  -0.00000  0.75156  1
 Mn  Mn3  1  0.50000  0.50000  0.75156  1
 Mn  Mn4  1  -0.00000  0.50000  0.24844  1
 Mn  Mn5  1  0.50000  -0.00000  0.24844  1
 Mn  Mn6  1  0.50000  0.50000  0.24844  1
 Sn  Sn1  1  0.33333  0.66667  0.00000  1
 Sn  Sn2  1  0.66667  0.33333  0.00000  1
 Sn  Sn3  1  0.33333  0.66667  0.50000  1
 Sn  Sn4  1  0.66667  0.33333  0.50000  1
 Sn  Sn5  1  0.00000  0.00000  0.66698  1
 Sn  Sn6  1  0.00000  0.00000  0.33302  1
 Tb  Tb1  1  0.00000  0.00000  0.00000  1
