CIF file written using JARVIS-Tools package.
data_KTlCl4
_symmetry_space_group_name_H-M  'I4_1/a'
_cell_length_a       6.92366
_cell_length_b       6.92366
_cell_length_c       9.01047
_cell_angle_alpha    112.594
_cell_angle_beta     112.594
_cell_angle_gamma    90

_symmetry_Int_Tables_number  88
_chemical_formula_structural  KTlCl4
_chemical_formula_sum  K2Tl2Cl8
_cell_volume  362.6144488224066
_cell_formula_units_Z  2
loop_
  _symmetry_equiv_pos_site_id
 _symmetry_equiv_pos_as_xyz
 1  'x, y, z'
loop_
 _atom_site_type_symbol
 _atom_site_label
 _atom_site_symmetry_multiplicity
 _atom_site_fract_x
 _atom_site_fract_y
 _atom_site_fract_z
 _atom_site_fract_occupancy
 Cl  Cl1  1  0.61457  0.28697  0.57297  1
 Cl  Cl2  1  0.78697  0.45840  0.07297  1
 Cl  Cl3  1  0.38543  0.71303  0.42703  1
 Cl  Cl4  1  0.71400  0.88543  0.92703  1
 Cl  Cl5  1  0.28600  0.11457  0.07297  1
 Cl  Cl6  1  0.04160  0.21400  0.42703  1
 Cl  Cl7  1  0.21303  0.54160  0.92703  1
 Cl  Cl8  1  0.95840  0.78600  0.57297  1
 K  K1  1  0.62500  0.87500  0.25000  1
 K  K2  1  0.37500  0.12500  0.75000  1
 Tl  Tl1  1  0.87500  0.62500  0.75000  1
 Tl  Tl2  1  0.12500  0.37500  0.25000  1
