CIF file written using JARVIS-Tools package.
data_Tl4SiS4
_symmetry_space_group_name_H-M  'Cc'
_cell_length_a       7.58743
_cell_length_b       8.50056
_cell_length_c       8.50056
_cell_angle_alpha    83.8344
_cell_angle_beta     73.3291
_cell_angle_gamma    73.329

_symmetry_Int_Tables_number  9
_chemical_formula_structural  Tl4SiS4
_chemical_formula_sum  Tl8Si2S8
_cell_volume  502.955312870982
_cell_formula_units_Z  2
loop_
  _symmetry_equiv_pos_site_id
 _symmetry_equiv_pos_as_xyz
 1  'x, y, z'
loop_
 _atom_site_type_symbol
 _atom_site_label
 _atom_site_symmetry_multiplicity
 _atom_site_fract_x
 _atom_site_fract_y
 _atom_site_fract_z
 _atom_site_fract_occupancy
 S  S1  1  0.34434  0.43052  0.72068  1
 S  S2  1  0.70438  0.08676  0.78046  1
 S  S3  1  0.70392  0.24814  0.37915  1
 S  S4  1  0.20392  0.37915  0.24814  1
 S  S5  1  0.84434  0.72068  0.43052  1
 S  S6  1  0.35223  0.05039  0.60324  1
 S  S7  1  0.20438  0.78046  0.08676  1
 S  S8  1  0.85223  0.60324  0.05039  1
 Si  Si1  1  0.52892  0.20125  0.61928  1
 Si  Si2  1  0.02892  0.61928  0.20125  1
 Tl  Tl1  1  0.07694  0.78690  0.78573  1
 Tl  Tl2  1  0.57694  0.78573  0.78690  1
 Tl  Tl3  1  0.05272  0.98156  0.40573  1
 Tl  Tl4  1  0.55272  0.40573  0.98156  1
 Tl  Tl5  1  0.08123  0.24525  0.99294  1
 Tl  Tl6  1  0.58123  0.99294  0.24525  1
 Tl  Tl7  1  -0.01349  0.37266  0.59776  1
 Tl  Tl8  1  0.48651  0.59776  0.37266  1
