CIF file written using JARVIS-Tools package.
data_Ni3Sb
_symmetry_space_group_name_H-M  'Pmmn'
_cell_length_a       4.28536
_cell_length_b       4.54516
_cell_length_c       5.34669
_cell_angle_alpha    90
_cell_angle_beta     90
_cell_angle_gamma    90

_symmetry_Int_Tables_number  59
_chemical_formula_structural  Ni3Sb
_chemical_formula_sum  Ni6Sb2
_cell_volume  104.1411877485268
_cell_formula_units_Z  2
loop_
  _symmetry_equiv_pos_site_id
 _symmetry_equiv_pos_as_xyz
 1  'x, y, z'
loop_
 _atom_site_type_symbol
 _atom_site_label
 _atom_site_symmetry_multiplicity
 _atom_site_fract_x
 _atom_site_fract_y
 _atom_site_fract_z
 _atom_site_fract_occupancy
 Ni  Ni1  1  0.00000  0.68630  0.50000  1
 Ni  Ni2  1  0.50000  0.31370  0.00000  1
 Ni  Ni3  1  0.00000  0.17221  0.74983  1
 Ni  Ni4  1  0.50000  0.82779  0.75017  1
 Ni  Ni5  1  0.00000  0.17221  0.25017  1
 Ni  Ni6  1  0.50000  0.82779  0.24983  1
 Sb  Sb1  1  0.50000  0.32139  0.50000  1
 Sb  Sb2  1  0.00000  0.67861  0.00000  1
