CIF file written using JARVIS-Tools package.
data_LaPO4
_symmetry_space_group_name_H-M  'I4_1/amd'
_cell_length_a       6.01967
_cell_length_b       6.01967
_cell_length_c       6.01967
_cell_angle_alpha    106.248
_cell_angle_beta     106.248
_cell_angle_gamma    116.131

_symmetry_Int_Tables_number  141
_chemical_formula_structural  LaPO4
_chemical_formula_sum  La2P2O8
_cell_volume  166.19677809132745
_cell_formula_units_Z  2
loop_
  _symmetry_equiv_pos_site_id
 _symmetry_equiv_pos_as_xyz
 1  'x, y, z'
loop_
 _atom_site_type_symbol
 _atom_site_label
 _atom_site_symmetry_multiplicity
 _atom_site_fract_x
 _atom_site_fract_y
 _atom_site_fract_z
 _atom_site_fract_occupancy
 La  La1  1  0.12500  0.37500  0.25000  1
 La  La2  1  0.87500  0.62500  0.75000  1
 O  O1  1  0.35493  0.27484  0.58009  1
 O  O2  1  0.77484  0.19475  0.41991  1
 O  O3  1  0.77484  0.85493  0.08009  1
 O  O4  1  0.69475  0.27484  0.91991  1
 O  O5  1  0.64507  0.72516  0.41991  1
 O  O6  1  0.22516  0.80525  0.58009  1
 O  O7  1  0.22516  0.14507  0.91991  1
 O  O8  1  0.30525  0.72516  0.08009  1
 P  P1  1  0.37500  0.12500  0.75000  1
 P  P2  1  0.62500  0.87500  0.25000  1
