CIF file written using JARVIS-Tools package.
data_Mn3OF5
_symmetry_space_group_name_H-M  'Cmmm'
_cell_length_a       6.9445
_cell_length_b       3.21477
_cell_length_c       10.5422
_cell_angle_alpha    90
_cell_angle_beta     109.244
_cell_angle_gamma    90

_symmetry_Int_Tables_number  65
_chemical_formula_structural  Mn3OF5
_chemical_formula_sum  Mn6O2F0
_cell_volume  222.20366982884465
_cell_formula_units_Z  2
loop_
  _symmetry_equiv_pos_site_id
 _symmetry_equiv_pos_as_xyz
 1  'x, y, z'
loop_
 _atom_site_type_symbol
 _atom_site_label
 _atom_site_symmetry_multiplicity
 _atom_site_fract_x
 _atom_site_fract_y
 _atom_site_fract_z
 _atom_site_fract_occupancy
 F  F1  1  0.97418  0.00000  0.33958  1
 F  F2  1  0.63456  0.00000  0.66035  1
 F  F3  1  0.30361  0.00000  0.99995  1
 F  F4  1  0.02582  0.00000  0.66042  1
 F  F5  1  0.93143  0.50000  0.86297  1
 F  F6  1  0.36544  0.00000  0.33965  1
 F  F7  1  0.72282  0.50000  0.44554  1
 F  F8  1  0.27718  0.50000  0.55446  1
 F  F9  1  0.06857  0.50000  0.13703  1
 F  F10  1  0.69639  0.00000  0.00005  1
 Mn  Mn1  1  0.17422  0.50000  0.34843  1
 Mn  Mn2  1  0.35100  0.00000  0.70195  1
 Mn  Mn3  1  0.64900  0.00000  0.29805  1
 Mn  Mn4  1  0.50000  0.50000  0.00000  1
 Mn  Mn5  1  0.82578  0.50000  0.65157  1
 Mn  Mn6  1  0.00000  0.00000  0.00000  1
 O  O1  1  0.59309  0.50000  0.18632  1
 O  O2  1  0.40691  0.50000  0.81368  1
