CIF file written using JARVIS-Tools package.
data_Al4C3
_symmetry_space_group_name_H-M  'P1'
_cell_length_a       4.66243
_cell_length_b       4.18078
_cell_length_c       5.03325
_cell_angle_alpha    87.438
_cell_angle_beta     107.291
_cell_angle_gamma    114.999

_symmetry_Int_Tables_number  1
_chemical_formula_structural  Al4C3
_chemical_formula_sum  Al4C3
_cell_volume  84.52893399456696
_cell_formula_units_Z  1
loop_
  _symmetry_equiv_pos_site_id
 _symmetry_equiv_pos_as_xyz
 1  'x, y, z'
loop_
 _atom_site_type_symbol
 _atom_site_label
 _atom_site_symmetry_multiplicity
 _atom_site_fract_x
 _atom_site_fract_y
 _atom_site_fract_z
 _atom_site_fract_occupancy
 Al  Al1  1  0.12463  0.46891  0.00610  1
 Al  Al2  1  0.21002  0.08090  0.63363  1
 Al  Al3  1  0.56478  0.17407  0.22769  1
 Al  Al4  1  0.57997  0.74156  0.67216  1
 C  C1  1  0.04089  0.91523  0.97821  1
 C  C2  1  0.60931  0.68154  0.28082  1
 C  C3  1  0.91907  -0.01195  0.21828  1
