CIF file written using JARVIS-Tools package.
data_Rb2H4Pt
_symmetry_space_group_name_H-M  'P4_2/mnm'
_cell_length_a       5.84821
_cell_length_b       5.84821
_cell_length_c       8.33797
_cell_angle_alpha    90
_cell_angle_beta     90
_cell_angle_gamma    90

_symmetry_Int_Tables_number  136
_chemical_formula_structural  Rb2H4Pt
_chemical_formula_sum  Rb4H8Pt2
_cell_volume  285.1716557380894
_cell_formula_units_Z  2
loop_
  _symmetry_equiv_pos_site_id
 _symmetry_equiv_pos_as_xyz
 1  'x, y, z'
loop_
 _atom_site_type_symbol
 _atom_site_label
 _atom_site_symmetry_multiplicity
 _atom_site_fract_x
 _atom_site_fract_y
 _atom_site_fract_z
 _atom_site_fract_occupancy
 H  H1  1  0.50000  0.50000  0.29983  1
 H  H2  1  0.00000  0.00000  0.79983  1
 H  H3  1  0.50000  0.50000  0.70017  1
 H  H4  1  0.00000  0.00000  0.20017  1
 H  H5  1  0.29813  0.70187  0.50000  1
 H  H6  1  0.70187  0.29813  0.50000  1
 H  H7  1  0.20187  0.20187  0.00000  1
 H  H8  1  0.79813  0.79813  0.00000  1
 Pt  Pt1  1  0.50000  0.50000  0.50000  1
 Pt  Pt2  1  0.00000  0.00000  0.00000  1
 Rb  Rb1  1  0.00000  0.50000  0.25000  1
 Rb  Rb2  1  0.50000  0.00000  0.75000  1
 Rb  Rb3  1  0.00000  0.50000  0.75000  1
 Rb  Rb4  1  0.50000  0.00000  0.25000  1
