CIF file written using JARVIS-Tools package.
data_DyGeAu
_symmetry_space_group_name_H-M  'P6_3mc'
_cell_length_a       4.46126
_cell_length_b       4.46126
_cell_length_c       7.30864
_cell_angle_alpha    90
_cell_angle_beta     90
_cell_angle_gamma    120

_symmetry_Int_Tables_number  186
_chemical_formula_structural  DyGeAu
_chemical_formula_sum  Dy2Ge2Au2
_cell_volume  125.97400985664157
_cell_formula_units_Z  2
loop_
  _symmetry_equiv_pos_site_id
 _symmetry_equiv_pos_as_xyz
 1  'x, y, z'
loop_
 _atom_site_type_symbol
 _atom_site_label
 _atom_site_symmetry_multiplicity
 _atom_site_fract_x
 _atom_site_fract_y
 _atom_site_fract_z
 _atom_site_fract_occupancy
 Au  Au1  1  0.66667  0.33333  0.36660  1
 Au  Au2  1  0.33333  0.66667  0.86660  1
 Dy  Dy1  1  0.00000  0.00000  0.15725  1
 Dy  Dy2  1  0.00000  0.00000  0.65725  1
 Ge  Ge1  1  0.66667  0.33333  0.95015  1
 Ge  Ge2  1  0.33333  0.66667  0.45015  1
