CIF file written using JARVIS-Tools package.
data_Ba3Ti2O7
_symmetry_space_group_name_H-M  'Fmm2'
_cell_length_a       4.05844
_cell_length_b       4.05861
_cell_length_c       11.0748
_cell_angle_alpha    100.528
_cell_angle_beta     100.537
_cell_angle_gamma    90.1427

_symmetry_Int_Tables_number  42
_chemical_formula_structural  Ba3Ti2O7
_chemical_formula_sum  Ba3Ti2O7
_cell_volume  176.20311353380103
_cell_formula_units_Z  1
loop_
  _symmetry_equiv_pos_site_id
 _symmetry_equiv_pos_as_xyz
 1  'x, y, z'
loop_
 _atom_site_type_symbol
 _atom_site_label
 _atom_site_symmetry_multiplicity
 _atom_site_fract_x
 _atom_site_fract_y
 _atom_site_fract_z
 _atom_site_fract_occupancy
 Ba  Ba1  1  0.43970  0.42892  0.36740  1
 Ba  Ba2  1  0.25756  0.24356  0.99992  1
 Ba  Ba3  1  0.07207  0.06156  0.63245  1
 O  O1  1  0.93186  0.94267  0.37331  1
 O  O2  1  0.84209  0.35670  0.18875  1
 O  O3  1  0.14433  0.65919  0.81110  1
 O  O4  1  0.65314  0.16800  0.81110  1
 O  O5  1  0.33328  0.84786  0.18875  1
 O  O6  1  0.74440  0.75673  0.99992  1
 O  O7  1  0.55826  0.56946  0.62654  1
 Ti  Ti1  1  0.86413  0.82691  0.18986  1
 Ti  Ti2  1  0.67408  0.63709  0.80998  1
