CIF file written using JARVIS-Tools package.
data_Ta2InC
_symmetry_space_group_name_H-M  'P6_3/mmc'
_cell_length_a       3.17506
_cell_length_b       3.17506
_cell_length_c       14.4556
_cell_angle_alpha    90
_cell_angle_beta     90
_cell_angle_gamma    120

_symmetry_Int_Tables_number  194
_chemical_formula_structural  Ta2InC
_chemical_formula_sum  Ta4In2C2
_cell_volume  126.20360371795546
_cell_formula_units_Z  2
loop_
  _symmetry_equiv_pos_site_id
 _symmetry_equiv_pos_as_xyz
 1  'x, y, z'
loop_
 _atom_site_type_symbol
 _atom_site_label
 _atom_site_symmetry_multiplicity
 _atom_site_fract_x
 _atom_site_fract_y
 _atom_site_fract_z
 _atom_site_fract_occupancy
 C  C1  1  0.00000  0.00000  0.00000  1
 C  C2  1  0.00000  0.00000  0.50000  1
 In  In1  1  0.33333  0.66667  0.75000  1
 In  In2  1  0.66667  0.33333  0.25000  1
 Ta  Ta1  1  0.33333  0.66667  0.08335  1
 Ta  Ta2  1  0.66667  0.33333  0.58335  1
 Ta  Ta3  1  0.66667  0.33333  0.91665  1
 Ta  Ta4  1  0.33333  0.66667  0.41665  1
