CIF file written using JARVIS-Tools package.
data_Li4V3SiO10
_symmetry_space_group_name_H-M  'P1'
_cell_length_a       5.078
_cell_length_b       6.01475
_cell_length_c       8.11271
_cell_angle_alpha    90.3449
_cell_angle_beta     107.979
_cell_angle_gamma    89.7073

_symmetry_Int_Tables_number  1
_chemical_formula_structural  Li4V3SiO10
_chemical_formula_sum  Li4V3SiO0
_cell_volume  235.68151519925092
_cell_formula_units_Z  1
loop_
  _symmetry_equiv_pos_site_id
 _symmetry_equiv_pos_as_xyz
 1  'x, y, z'
loop_
 _atom_site_type_symbol
 _atom_site_label
 _atom_site_symmetry_multiplicity
 _atom_site_fract_x
 _atom_site_fract_y
 _atom_site_fract_z
 _atom_site_fract_occupancy
 Li  Li1  1  0.02076  0.34554  0.88921  1
 Li  Li2  1  0.62876  0.35639  0.12561  1
 Li  Li3  1  0.13655  0.65979  0.11327  1
 Li  Li4  1  0.52325  0.65403  0.89951  1
 O  O1  1  0.29825  0.88201  0.74937  1
 O  O2  1  0.54929  0.09378  0.25219  1
 O  O3  1  0.25668  0.24000  0.50245  1
 O  O4  1  0.80623  0.10863  0.74986  1
 O  O5  1  0.02544  0.34784  0.13342  1
 O  O6  1  0.52889  0.66545  0.14073  1
 O  O7  1  0.76731  0.76585  0.47928  1
 O  O8  1  0.39795  0.34149  0.87666  1
 O  O9  1  0.88721  0.65256  0.85821  1
 O  O10  1  0.01202  0.88943  0.24242  1
 Si  Si1  1  0.70887  0.84560  0.27654  1
 V  V1  1  0.93104  0.83416  0.70574  1
 V  V2  1  0.20726  0.15873  0.28382  1
 V  V3  1  0.43825  0.15871  0.72171  1
