CIF file written using JARVIS-Tools package.
data_BiB3O6
_symmetry_space_group_name_H-M  'C2'
_cell_length_a       4.37549
_cell_length_b       4.37549
_cell_length_c       6.55158
_cell_angle_alpha    78.0748
_cell_angle_beta     78.0748
_cell_angle_gamma    67.6112

_symmetry_Int_Tables_number  5
_chemical_formula_structural  BiB3O6
_chemical_formula_sum  BiB3O6
_cell_volume  112.33112722067774
_cell_formula_units_Z  1
loop_
  _symmetry_equiv_pos_site_id
 _symmetry_equiv_pos_as_xyz
 1  'x, y, z'
loop_
 _atom_site_type_symbol
 _atom_site_label
 _atom_site_symmetry_multiplicity
 _atom_site_fract_x
 _atom_site_fract_y
 _atom_site_fract_z
 _atom_site_fract_occupancy
 B  B1  1  0.69825  0.30175  0.50000  1
 B  B2  1  0.79989  0.69814  0.69496  1
 B  B3  1  0.30186  0.20011  0.30504  1
 Bi  Bi1  1  0.01599  -0.01599  0.00000  1
 O  O1  1  0.91528  0.50575  0.87659  1
 O  O2  1  0.38251  0.33266  0.44586  1
 O  O3  1  0.66734  0.61749  0.55414  1
 O  O4  1  0.79144  0.02603  0.68125  1
 O  O5  1  0.97397  0.20856  0.31875  1
 O  O6  1  0.49425  0.08472  0.12341  1
