CIF file written using JARVIS-Tools package.
data_K2NaInP2
_symmetry_space_group_name_H-M  'Ibam'
_cell_length_a       6.64454
_cell_length_b       6.60487
_cell_length_c       8.83372
_cell_angle_alpha    111.953
_cell_angle_beta     112.092
_cell_angle_gamma    90

_symmetry_Int_Tables_number  72
_chemical_formula_structural  K2NaInP2
_chemical_formula_sum  K4Na2In2P4
_cell_volume  328.68165526989424
_cell_formula_units_Z  2
loop_
  _symmetry_equiv_pos_site_id
 _symmetry_equiv_pos_as_xyz
 1  'x, y, z'
loop_
 _atom_site_type_symbol
 _atom_site_label
 _atom_site_symmetry_multiplicity
 _atom_site_fract_x
 _atom_site_fract_y
 _atom_site_fract_z
 _atom_site_fract_occupancy
 In  In1  1  0.25000  0.50000  -0.00000  1
 In  In2  1  0.75000  0.50000  -0.00000  1
 K  K1  1  0.82321  0.06099  0.64642  1
 K  K2  1  0.17679  0.93901  0.35358  1
 K  K3  1  0.67679  0.41457  0.35358  1
 K  K4  1  0.32321  0.58543  0.64642  1
 Na  Na1  1  0.75000  0.00000  -0.00000  1
 Na  Na2  1  0.25000  0.00000  -0.00000  1
 P  P1  1  0.60114  0.81975  0.20229  1
 P  P2  1  0.39886  0.18025  0.79771  1
 P  P3  1  0.89886  0.61746  0.79771  1
 P  P4  1  0.10114  0.38254  0.20229  1
