CIF file written using JARVIS-Tools package.
data_Li4FeO3F
_symmetry_space_group_name_H-M  'P-1'
_cell_length_a       5.1059
_cell_length_b       5.21157
_cell_length_c       7.88674
_cell_angle_alpha    71.4762
_cell_angle_beta     81.6281
_cell_angle_gamma    68.9066

_symmetry_Int_Tables_number  2
_chemical_formula_structural  Li4FeO3F
_chemical_formula_sum  Li8Fe2O6F2
_cell_volume  185.54170294392597
_cell_formula_units_Z  2
loop_
  _symmetry_equiv_pos_site_id
 _symmetry_equiv_pos_as_xyz
 1  'x, y, z'
loop_
 _atom_site_type_symbol
 _atom_site_label
 _atom_site_symmetry_multiplicity
 _atom_site_fract_x
 _atom_site_fract_y
 _atom_site_fract_z
 _atom_site_fract_occupancy
 F  F1  1  0.65314  0.16371  0.50257  1
 F  F2  1  0.34686  0.83629  0.49743  1
 Fe  Fe1  1  0.21952  0.59545  0.73741  1
 Fe  Fe2  1  0.78048  0.40455  0.26259  1
 Li  Li1  1  0.23538  0.25544  0.50749  1
 Li  Li2  1  0.25217  0.51460  0.07796  1
 Li  Li3  1  0.24805  0.04194  0.94716  1
 Li  Li4  1  0.78590  0.17064  0.72650  1
 Li  Li5  1  0.74783  0.48540  0.92204  1
 Li  Li6  1  0.75195  0.95806  0.05284  1
 Li  Li7  1  0.76462  0.74456  0.49251  1
 Li  Li8  1  0.21410  0.82936  0.27350  1
 O  O1  1  0.97650  0.44311  0.68524  1
 O  O2  1  0.48510  0.30183  0.88986  1
 O  O3  1  0.03335  0.83149  0.87672  1
 O  O4  1  0.96665  0.16851  0.12328  1
 O  O5  1  0.51490  0.69817  0.11014  1
 O  O6  1  0.02350  0.55689  0.31476  1
