CIF file written using JARVIS-Tools package.
data_TlHg5Cl11
_symmetry_space_group_name_H-M  'C2/m'
_cell_length_a       6.45834
_cell_length_b       9.19202
_cell_length_c       9.19203
_cell_angle_alpha    100.337
_cell_angle_beta     107.59
_cell_angle_gamma    107.59

_symmetry_Int_Tables_number  12
_chemical_formula_structural  TlHg5Cl11
_chemical_formula_sum  TlHg5Cl
_cell_volume  473.3271610300208
_cell_formula_units_Z  1
loop_
  _symmetry_equiv_pos_site_id
 _symmetry_equiv_pos_as_xyz
 1  'x, y, z'
loop_
 _atom_site_type_symbol
 _atom_site_label
 _atom_site_symmetry_multiplicity
 _atom_site_fract_x
 _atom_site_fract_y
 _atom_site_fract_z
 _atom_site_fract_occupancy
 Cl  Cl1  1  0.91623  0.33013  0.08518  1
 Cl  Cl2  1  0.60011  0.85072  0.85072  1
 Cl  Cl3  1  0.39989  0.14928  0.14928  1
 Cl  Cl4  1  0.91623  0.08518  0.33013  1
 Cl  Cl5  1  0.70676  0.20166  0.64594  1
 Cl  Cl6  1  0.29324  0.35406  0.79834  1
 Cl  Cl7  1  0.29324  0.79834  0.35406  1
 Cl  Cl8  1  0.70676  0.64594  0.20166  1
 Cl  Cl9  1  0.50000  0.50000  0.50000  1
 Cl  Cl10  1  0.08377  0.66987  0.91482  1
 Cl  Cl11  1  0.08377  0.91482  0.66987  1
 Hg  Hg1  1  0.31252  0.14522  0.48461  1
 Hg  Hg2  1  0.68748  0.51539  0.85478  1
 Hg  Hg3  1  0.68748  0.85478  0.51539  1
 Hg  Hg4  1  0.31252  0.48461  0.14522  1
 Hg  Hg5  1  0.00000  0.00000  0.00000  1
 Tl  Tl1  1  0.00000  0.50000  0.50000  1
