CIF file written using JARVIS-Tools package.
data_LiTi3O6
_symmetry_space_group_name_H-M  'Cm'
_cell_length_a       7.2792
_cell_length_b       7.2792
_cell_length_c       4.95175
_cell_angle_alpha    88.3093
_cell_angle_beta     91.6907
_cell_angle_gamma    156.526

_symmetry_Int_Tables_number  8
_chemical_formula_structural  LiTi3O6
_chemical_formula_sum  LiTi3O6
_cell_volume  104.46575167560152
_cell_formula_units_Z  1
loop_
  _symmetry_equiv_pos_site_id
 _symmetry_equiv_pos_as_xyz
 1  'x, y, z'
loop_
 _atom_site_type_symbol
 _atom_site_label
 _atom_site_symmetry_multiplicity
 _atom_site_fract_x
 _atom_site_fract_y
 _atom_site_fract_z
 _atom_site_fract_occupancy
 Li  Li1  1  0.77993  0.22007  0.93459  1
 O  O1  1  0.09904  0.90096  0.30233  1
 O  O2  1  0.22960  0.77040  0.71052  1
 O  O3  1  0.43496  0.56504  0.18737  1
 O  O4  1  0.56555  0.43445  0.80603  1
 O  O5  1  0.77405  0.22595  0.30231  1
 O  O6  1  0.89802  0.10198  0.70808  1
 Ti  Ti1  1  0.34899  0.65101  0.47659  1
 Ti  Ti2  1  0.00376  0.99624  0.99889  1
 Ti  Ti3  1  0.65390  0.34610  0.51299  1
