CIF file written using JARVIS-Tools package.
data_CaZnSi2O6
_symmetry_space_group_name_H-M  'C2/c'
_cell_length_a       5.29428
_cell_length_b       6.68904
_cell_length_c       6.68904
_cell_angle_alpha    84.5146
_cell_angle_beta     78.5782
_cell_angle_gamma    78.5782

_symmetry_Int_Tables_number  15
_chemical_formula_structural  CaZnSi2O6
_chemical_formula_sum  Ca2Zn2Si4O2
_cell_volume  227.20127914968114
_cell_formula_units_Z  2
loop_
  _symmetry_equiv_pos_site_id
 _symmetry_equiv_pos_as_xyz
 1  'x, y, z'
loop_
 _atom_site_type_symbol
 _atom_site_label
 _atom_site_symmetry_multiplicity
 _atom_site_fract_x
 _atom_site_fract_y
 _atom_site_fract_z
 _atom_site_fract_occupancy
 Ca  Ca1  1  0.25000  0.69991  0.30009  1
 Ca  Ca2  1  0.75000  0.30009  0.69991  1
 O  O1  1  0.99077  0.62831  0.67078  1
 O  O2  1  0.49077  0.67078  0.62831  1
 O  O3  1  0.00923  0.37169  0.32922  1
 O  O4  1  0.17350  0.11117  0.61053  1
 O  O5  1  0.32650  0.38947  0.88883  1
 O  O6  1  0.82650  0.88883  0.38947  1
 O  O7  1  0.67350  0.61053  0.11117  1
 O  O8  1  0.50923  0.32922  0.37169  1
 O  O9  1  0.14448  0.79319  0.97347  1
 O  O10  1  0.35552  0.02653  0.20681  1
 O  O11  1  0.85552  0.20681  0.02653  1
 O  O12  1  0.64448  0.97347  0.79319  1
 Si  Si1  1  0.27068  0.19331  0.37999  1
 Si  Si2  1  0.22932  0.62001  0.80669  1
 Si  Si3  1  0.72932  0.80669  0.62001  1
 Si  Si4  1  0.77068  0.37999  0.19331  1
 Zn  Zn1  1  0.75000  0.90573  0.09427  1
 Zn  Zn2  1  0.25000  0.09427  0.90573  1
