CIF file written using JARVIS-Tools package.
data_Ta2Tl3Cu3S8
_symmetry_space_group_name_H-M  'C2'
_cell_length_a       5.56932
_cell_length_b       7.27207
_cell_length_c       10.1023
_cell_angle_alpha    95.8056
_cell_angle_beta     106.001
_cell_angle_gamma    90.0061

_symmetry_Int_Tables_number  5
_chemical_formula_structural  Ta2Tl3Cu3S8
_chemical_formula_sum  Ta2Tl3Cu3S8
_cell_volume  391.1105902150283
_cell_formula_units_Z  1
loop_
  _symmetry_equiv_pos_site_id
 _symmetry_equiv_pos_as_xyz
 1  'x, y, z'
loop_
 _atom_site_type_symbol
 _atom_site_label
 _atom_site_symmetry_multiplicity
 _atom_site_fract_x
 _atom_site_fract_y
 _atom_site_fract_z
 _atom_site_fract_occupancy
 Cu  Cu1  1  0.26648  0.00005  0.99996  1
 Cu  Cu2  1  0.64174  0.81943  0.74664  1
 Cu  Cu3  1  0.89514  0.18059  0.25339  1
 S  S1  1  0.73793  0.12964  0.43879  1
 S  S2  1  0.94035  0.06528  0.80922  1
 S  S3  1  0.29913  0.87031  0.56120  1
 S  S4  1  0.84898  0.56695  0.66755  1
 S  S5  1  0.13104  0.93474  0.19072  1
 S  S6  1  0.54143  0.25909  0.07706  1
 S  S7  1  0.46432  0.74098  0.92295  1
 S  S8  1  0.18158  0.43303  0.33249  1
 Ta  Ta1  1  0.13725  0.80885  0.73679  1
 Ta  Ta2  1  0.40048  0.19112  0.26320  1
 Tl  Tl1  1  0.68701  0.70573  0.35777  1
 Tl  Tl2  1  0.32901  0.29422  0.64224  1
 Tl  Tl3  1  0.01381  0.50000  0.00002  1
