CIF file written using JARVIS-Tools package.
data_Rb3H5Pd
_symmetry_space_group_name_H-M  'Cm'
_cell_length_a       7.68519
_cell_length_b       7.68519
_cell_length_c       6.01335
_cell_angle_alpha    90
_cell_angle_beta     90
_cell_angle_gamma    90

_symmetry_Int_Tables_number  8
_chemical_formula_structural  Rb3H5Pd
_chemical_formula_sum  Rb6H0Pd2
_cell_volume  355.1617444644086
_cell_formula_units_Z  2
loop_
  _symmetry_equiv_pos_site_id
 _symmetry_equiv_pos_as_xyz
 1  'x, y, z'
loop_
 _atom_site_type_symbol
 _atom_site_label
 _atom_site_symmetry_multiplicity
 _atom_site_fract_x
 _atom_site_fract_y
 _atom_site_fract_z
 _atom_site_fract_occupancy
 H  H1  1  0.60987  0.10987  0.19329  1
 H  H2  1  0.50000  0.50000  0.50000  1
 H  H3  1  0.00000  0.00000  0.50000  1
 H  H4  1  0.50000  0.00000  0.00000  1
 H  H5  1  0.39013  0.89013  0.80671  1
 H  H6  1  0.60987  0.10987  0.80671  1
 H  H7  1  0.10987  0.39013  0.19329  1
 H  H8  1  0.89013  0.60987  0.19329  1
 H  H9  1  0.89013  0.60987  0.80671  1
 H  H10  1  0.39013  0.89013  0.19329  1
 Pd  Pd1  1  0.00000  0.50000  0.00000  1
 Pd  Pd2  1  0.10987  0.39013  0.80671  1
 Rb  Rb1  1  0.31544  0.18456  0.50000  1
 Rb  Rb2  1  0.68456  0.81544  0.50000  1
 Rb  Rb3  1  0.81544  0.31544  0.50000  1
 Rb  Rb4  1  0.18456  0.68456  0.50000  1
 Rb  Rb5  1  0.00000  0.00000  0.00000  1
 Rb  Rb6  1  0.50000  0.50000  0.00000  1
