CIF file written using JARVIS-Tools package.
data_CaBiO3
_symmetry_space_group_name_H-M  'R-3'
_cell_length_a       5.94006
_cell_length_b       5.94003
_cell_length_c       6.11853
_cell_angle_alpha    60.9599
_cell_angle_beta     60.9604
_cell_angle_gamma    59.9999

_symmetry_Int_Tables_number  148
_chemical_formula_structural  CaBiO3
_chemical_formula_sum  Ca2Bi2O6
_cell_volume  154.83297660645042
_cell_formula_units_Z  2
loop_
  _symmetry_equiv_pos_site_id
 _symmetry_equiv_pos_as_xyz
 1  'x, y, z'
loop_
 _atom_site_type_symbol
 _atom_site_label
 _atom_site_symmetry_multiplicity
 _atom_site_fract_x
 _atom_site_fract_y
 _atom_site_fract_z
 _atom_site_fract_occupancy
 Bi  Bi1  1  0.35512  0.35511  0.93466  1
 Bi  Bi2  1  0.64488  0.64489  0.06534  1
 Ca  Ca1  1  0.13784  0.13784  0.58649  1
 Ca  Ca2  1  0.86216  0.86216  0.41351  1
 O  O1  1  0.73723  0.03782  0.76145  1
 O  O2  1  0.03782  0.46350  0.76145  1
 O  O3  1  0.46350  0.73723  0.76145  1
 O  O4  1  0.53650  0.26277  0.23855  1
 O  O5  1  0.96218  0.53650  0.23855  1
 O  O6  1  0.26277  0.96218  0.23855  1
