CIF file written using JARVIS-Tools package.
data_Sr3LiRuO6
_symmetry_space_group_name_H-M  'R-3c'
_cell_length_a       6.70895
_cell_length_b       6.70896
_cell_length_c       6.70895
_cell_angle_alpha    92.3784
_cell_angle_beta     92.3784
_cell_angle_gamma    92.3784

_symmetry_Int_Tables_number  167
_chemical_formula_structural  Sr3LiRuO6
_chemical_formula_sum  Sr6Li2Ru2O2
_cell_volume  301.1681475831632
_cell_formula_units_Z  2
loop_
  _symmetry_equiv_pos_site_id
 _symmetry_equiv_pos_as_xyz
 1  'x, y, z'
loop_
 _atom_site_type_symbol
 _atom_site_label
 _atom_site_symmetry_multiplicity
 _atom_site_fract_x
 _atom_site_fract_y
 _atom_site_fract_z
 _atom_site_fract_occupancy
 Li  Li1  1  0.25000  0.25000  0.25000  1
 Li  Li2  1  0.75000  0.75000  0.75000  1
 O  O1  1  0.21976  0.41619  0.54687  1
 O  O2  1  0.45313  0.78024  0.58381  1
 O  O3  1  0.04687  0.91619  0.71976  1
 O  O4  1  0.91619  0.71976  0.04687  1
 O  O5  1  0.71976  0.04687  0.91619  1
 O  O6  1  0.78024  0.58381  0.45313  1
 O  O7  1  0.58381  0.45313  0.78024  1
 O  O8  1  0.54687  0.21976  0.41619  1
 O  O9  1  0.95313  0.08381  0.28024  1
 O  O10  1  0.28024  0.95313  0.08381  1
 O  O11  1  0.41619  0.54687  0.21976  1
 O  O12  1  0.08381  0.28024  0.95313  1
 Ru  Ru1  1  0.50000  0.50000  0.50000  1
 Ru  Ru2  1  0.00000  0.00000  0.00000  1
 Sr  Sr1  1  0.60960  0.89040  0.25000  1
 Sr  Sr2  1  0.25000  0.60960  0.89040  1
 Sr  Sr3  1  0.10960  0.75000  0.39040  1
 Sr  Sr4  1  0.75000  0.39040  0.10960  1
 Sr  Sr5  1  0.39040  0.10960  0.75000  1
 Sr  Sr6  1  0.89040  0.25000  0.60960  1
