CIF file written using JARVIS-Tools package.
data_TiIN
_symmetry_space_group_name_H-M  'Pmmn'
_cell_length_a       3.53682
_cell_length_b       3.96486
_cell_length_c       9.06173
_cell_angle_alpha    90
_cell_angle_beta     90
_cell_angle_gamma    90

_symmetry_Int_Tables_number  59
_chemical_formula_structural  TiIN
_chemical_formula_sum  Ti2I2N2
_cell_volume  127.07245300306441
_cell_formula_units_Z  2
loop_
  _symmetry_equiv_pos_site_id
 _symmetry_equiv_pos_as_xyz
 1  'x, y, z'
loop_
 _atom_site_type_symbol
 _atom_site_label
 _atom_site_symmetry_multiplicity
 _atom_site_fract_x
 _atom_site_fract_y
 _atom_site_fract_z
 _atom_site_fract_occupancy
 I  I1  1  0.50000  0.50000  0.68008  1
 I  I2  1  0.00000  0.00000  0.31992  1
 N  N1  1  0.00000  0.00000  0.96437  1
 N  N2  1  0.50000  0.50000  0.03563  1
 Ti  Ti1  1  0.00000  0.50000  0.92306  1
 Ti  Ti2  1  0.50000  0.00000  0.07694  1
