CIF file written using JARVIS-Tools package.
data_RbBS3
_symmetry_space_group_name_H-M  'P2_1/c'
_cell_length_a       5.79916
_cell_length_b       7.02926
_cell_length_c       11.8376
_cell_angle_alpha    90
_cell_angle_beta     90
_cell_angle_gamma    106.975

_symmetry_Int_Tables_number  14
_chemical_formula_structural  RbBS3
_chemical_formula_sum  Rb4B4S2
_cell_volume  461.5227817935946
_cell_formula_units_Z  4
loop_
  _symmetry_equiv_pos_site_id
 _symmetry_equiv_pos_as_xyz
 1  'x, y, z'
loop_
 _atom_site_type_symbol
 _atom_site_label
 _atom_site_symmetry_multiplicity
 _atom_site_fract_x
 _atom_site_fract_y
 _atom_site_fract_z
 _atom_site_fract_occupancy
 B  B1  1  0.66638  0.70332  0.23047  1
 B  B2  1  0.16638  0.70332  0.26953  1
 B  B3  1  0.33362  0.29668  0.76953  1
 B  B4  1  0.83362  0.29668  0.73047  1
 Rb  Rb1  1  0.20732  0.25882  0.42109  1
 Rb  Rb2  1  0.79268  0.74118  0.57891  1
 Rb  Rb3  1  0.70732  0.25882  0.07891  1
 Rb  Rb4  1  0.29268  0.74118  0.92109  1
 S  S1  1  0.84662  0.54719  0.30645  1
 S  S2  1  0.65338  0.45281  0.80645  1
 S  S3  1  0.15338  0.45281  0.69355  1
 S  S4  1  0.34662  0.54719  0.19355  1
 S  S5  1  0.83715  0.80503  0.09477  1
 S  S6  1  0.83581  0.06355  0.82133  1
 S  S7  1  0.33715  0.80503  0.40523  1
 S  S8  1  0.66419  0.93645  0.32133  1
 S  S9  1  0.16419  0.93645  0.17867  1
 S  S10  1  0.33581  0.06355  0.67867  1
 S  S11  1  0.66285  0.19497  0.59477  1
 S  S12  1  0.16285  0.19497  0.90523  1
