CIF file written using JARVIS-Tools package.
data_K2Pb2O3
_symmetry_space_group_name_H-M  'I2_13'
_cell_length_a       7.30641
_cell_length_b       7.30641
_cell_length_c       7.30641
_cell_angle_alpha    109.471
_cell_angle_beta     109.471
_cell_angle_gamma    109.471

_symmetry_Int_Tables_number  199
_chemical_formula_structural  K2Pb2O3
_chemical_formula_sum  K4Pb4O6
_cell_volume  300.25450483825813
_cell_formula_units_Z  2
loop_
  _symmetry_equiv_pos_site_id
 _symmetry_equiv_pos_as_xyz
 1  'x, y, z'
loop_
 _atom_site_type_symbol
 _atom_site_label
 _atom_site_symmetry_multiplicity
 _atom_site_fract_x
 _atom_site_fract_y
 _atom_site_fract_z
 _atom_site_fract_occupancy
 K  K1  1  0.44639  0.50000  -0.00000  1
 K  K2  1  0.05361  0.05361  0.05361  1
 K  K3  1  -0.00000  0.44639  0.50000  1
 K  K4  1  0.50000  0.00000  0.44639  1
 O  O1  1  0.75000  0.95632  0.20632  1
 O  O2  1  0.25000  0.54368  0.29368  1
 O  O3  1  0.95632  0.20632  0.75000  1
 O  O4  1  0.20632  0.75000  0.95632  1
 O  O5  1  0.29368  0.25000  0.54368  1
 O  O6  1  0.54368  0.29368  0.25000  1
 Pb  Pb1  1  0.50000  0.00000  0.97874  1
 Pb  Pb2  1  -0.00000  0.97874  0.50000  1
 Pb  Pb3  1  0.52126  0.52126  0.52126  1
 Pb  Pb4  1  0.97874  0.50000  -0.00000  1
