CIF file written using JARVIS-Tools package.
data_TiW2O8
_symmetry_space_group_name_H-M  'P-1'
_cell_length_a       4.88768
_cell_length_b       6.40874
_cell_length_c       6.15562
_cell_angle_alpha    106.804
_cell_angle_beta     125.308
_cell_angle_gamma    90.4124

_symmetry_Int_Tables_number  2
_chemical_formula_structural  TiW2O8
_chemical_formula_sum  TiW2O8
_cell_volume  146.83454656668235
_cell_formula_units_Z  1
loop_
  _symmetry_equiv_pos_site_id
 _symmetry_equiv_pos_as_xyz
 1  'x, y, z'
loop_
 _atom_site_type_symbol
 _atom_site_label
 _atom_site_symmetry_multiplicity
 _atom_site_fract_x
 _atom_site_fract_y
 _atom_site_fract_z
 _atom_site_fract_occupancy
 O  O1  1  0.21549  0.66652  0.83965  1
 O  O2  1  0.52057  0.48273  0.36302  1
 O  O3  1  0.20944  0.18738  0.81365  1
 O  O4  1  0.44980  0.06443  0.33053  1
 O  O5  1  0.72881  0.96374  0.83636  1
 O  O6  1  0.03390  0.77996  0.35973  1
 O  O7  1  0.03996  0.25910  0.38573  1
 O  O8  1  0.79959  0.38204  0.86885  1
 Ti  Ti1  1  0.12470  0.22324  0.09969  1
 W  W1  1  0.91531  0.41863  0.63220  1
 W  W2  1  0.33409  0.02785  0.56718  1
