CIF file written using JARVIS-Tools package.
data_SrSm2O4
_symmetry_space_group_name_H-M  'Fd-3m'
_cell_length_a       7.09651
_cell_length_b       7.09704
_cell_length_c       7.09651
_cell_angle_alpha    60.0024
_cell_angle_beta     90
_cell_angle_gamma    119.998

_symmetry_Int_Tables_number  227
_chemical_formula_structural  SrSm2O4
_chemical_formula_sum  Sr2Sm4O8
_cell_volume  252.746182165277
_cell_formula_units_Z  2
loop_
  _symmetry_equiv_pos_site_id
 _symmetry_equiv_pos_as_xyz
 1  'x, y, z'
loop_
 _atom_site_type_symbol
 _atom_site_label
 _atom_site_symmetry_multiplicity
 _atom_site_fract_x
 _atom_site_fract_y
 _atom_site_fract_z
 _atom_site_fract_occupancy
 O  O1  1  0.76531  0.03064  0.26525  1
 O  O2  1  0.76525  0.46936  0.26533  1
 O  O3  1  0.20410  0.46936  0.26531  1
 O  O4  1  0.23467  0.96936  0.29590  1
 O  O5  1  0.76533  0.03064  0.70410  1
 O  O6  1  0.79590  0.53064  0.73469  1
 O  O7  1  0.23475  0.53064  0.73467  1
 O  O8  1  0.23469  0.96936  0.73475  1
 Sm  Sm1  1  0.00000  0.50000  -0.00000  1
 Sm  Sm2  1  0.50000  0.00000  0.50000  1
 Sm  Sm3  1  0.00000  0.00000  0.50000  1
 Sm  Sm4  1  0.00000  0.50000  0.50000  1
 Sr  Sr1  1  0.62500  0.75000  0.12500  1
 Sr  Sr2  1  0.37500  0.25000  0.87500  1
