CIF file written using JARVIS-Tools package.
data_Li5V2Fe3O10
_symmetry_space_group_name_H-M  'P-1'
_cell_length_a       4.95593
_cell_length_b       5.06222
_cell_length_c       7.51042
_cell_angle_alpha    102.63
_cell_angle_beta     107.596
_cell_angle_gamma    99.9403

_symmetry_Int_Tables_number  2
_chemical_formula_structural  Li5V2Fe3O10
_chemical_formula_sum  Li5V2Fe3O0
_cell_volume  169.38928828225173
_cell_formula_units_Z  1
loop_
  _symmetry_equiv_pos_site_id
 _symmetry_equiv_pos_as_xyz
 1  'x, y, z'
loop_
 _atom_site_type_symbol
 _atom_site_label
 _atom_site_symmetry_multiplicity
 _atom_site_fract_x
 _atom_site_fract_y
 _atom_site_fract_z
 _atom_site_fract_occupancy
 Fe  Fe1  1  0.00000  0.50000  0.00000  1
 Fe  Fe2  1  0.79752  0.00052  0.10644  1
 Fe  Fe3  1  0.20248  0.99948  0.89356  1
 Li  Li1  1  0.80561  0.50688  0.59079  1
 Li  Li2  1  0.19439  0.49312  0.40921  1
 Li  Li3  1  -0.00000  0.00000  0.50000  1
 Li  Li4  1  0.37580  0.48660  0.78462  1
 Li  Li5  1  0.62420  0.51340  0.21538  1
 O  O1  1  0.58590  0.76394  0.45035  1
 O  O2  1  0.40493  0.76571  0.04438  1
 O  O3  1  0.81159  0.78081  0.85798  1
 O  O4  1  0.59507  0.23429  0.95562  1
 O  O5  1  0.41410  0.23606  0.54965  1
 O  O6  1  0.00841  0.76938  0.24483  1
 O  O7  1  0.20814  0.75823  0.65648  1
 O  O8  1  0.79186  0.24177  0.34352  1
 O  O9  1  0.99159  0.23062  0.75517  1
 O  O10  1  0.18841  0.21919  0.14202  1
 V  V1  1  0.57394  0.99535  0.69656  1
 V  V2  1  0.42606  0.00465  0.30344  1
