CIF file written using JARVIS-Tools package.
data_SnW2O8
_symmetry_space_group_name_H-M  'P-1'
_cell_length_a       4.98827
_cell_length_b       6.25047
_cell_length_c       6.40861
_cell_angle_alpha    108.263
_cell_angle_beta     124.253
_cell_angle_gamma    89.5528

_symmetry_Int_Tables_number  2
_chemical_formula_structural  SnW2O8
_chemical_formula_sum  SnW2O8
_cell_volume  153.1777408917508
_cell_formula_units_Z  1
loop_
  _symmetry_equiv_pos_site_id
 _symmetry_equiv_pos_as_xyz
 1  'x, y, z'
loop_
 _atom_site_type_symbol
 _atom_site_label
 _atom_site_symmetry_multiplicity
 _atom_site_fract_x
 _atom_site_fract_y
 _atom_site_fract_z
 _atom_site_fract_occupancy
 O  O1  1  0.20116  0.68310  0.83135  1
 O  O2  1  0.53802  0.49221  0.37286  1
 O  O3  1  0.20575  0.19304  0.80150  1
 O  O4  1  0.45243  0.05504  0.34184  1
 O  O5  1  0.71138  0.95427  0.82652  1
 O  O6  1  0.04824  0.76338  0.36803  1
 O  O7  1  0.04364  0.25344  0.39789  1
 O  O8  1  0.79696  0.39144  0.85754  1
 Sn  Sn1  1  0.12470  0.22324  0.09969  1
 W  W1  1  0.91540  0.42607  0.63289  1
 W  W2  1  0.33399  0.02041  0.56650  1
