CIF file written using JARVIS-Tools package.
data_ThGa2
_symmetry_space_group_name_H-M  'I4_1/amd'
_cell_length_a       4.26532
_cell_length_b       4.26532
_cell_length_c       7.94648
_cell_angle_alpha    105.568
_cell_angle_beta     105.568
_cell_angle_gamma    90

_symmetry_Int_Tables_number  141
_chemical_formula_structural  ThGa2
_chemical_formula_sum  Th2Ga4
_cell_volume  133.7519908175029
_cell_formula_units_Z  2
loop_
  _symmetry_equiv_pos_site_id
 _symmetry_equiv_pos_as_xyz
 1  'x, y, z'
loop_
 _atom_site_type_symbol
 _atom_site_label
 _atom_site_symmetry_multiplicity
 _atom_site_fract_x
 _atom_site_fract_y
 _atom_site_fract_z
 _atom_site_fract_occupancy
 Ga  Ga1  1  0.70828  0.95828  0.91655  1
 Ga  Ga2  1  0.45828  0.20828  0.41655  1
 Ga  Ga3  1  0.54172  0.79172  0.58345  1
 Ga  Ga4  1  0.29172  0.04172  0.08345  1
 Th  Th1  1  0.87500  0.62500  0.25000  1
 Th  Th2  1  0.12500  0.37500  0.75000  1
