CIF file written using JARVIS-Tools package.
data_NpSi
_symmetry_space_group_name_H-M  'Pnma'
_cell_length_a       2.59749
_cell_length_b       5.52929
_cell_length_c       9.59637
_cell_angle_alpha    90
_cell_angle_beta     90
_cell_angle_gamma    90

_symmetry_Int_Tables_number  62
_chemical_formula_structural  NpSi
_chemical_formula_sum  Np4Si4
_cell_volume  137.82534885815284
_cell_formula_units_Z  4
loop_
  _symmetry_equiv_pos_site_id
 _symmetry_equiv_pos_as_xyz
 1  'x, y, z'
loop_
 _atom_site_type_symbol
 _atom_site_label
 _atom_site_symmetry_multiplicity
 _atom_site_fract_x
 _atom_site_fract_y
 _atom_site_fract_z
 _atom_site_fract_occupancy
 Np  Np1  1  0.25000  0.43274  0.72774  1
 Np  Np2  1  0.75000  0.56726  0.27226  1
 Np  Np3  1  0.75000  0.93274  0.77226  1
 Np  Np4  1  0.25000  0.06726  0.22774  1
 Si  Si1  1  0.25000  0.80507  0.51000  1
 Si  Si2  1  0.75000  0.19493  0.49000  1
 Si  Si3  1  0.75000  0.30507  0.99000  1
 Si  Si4  1  0.25000  0.69493  0.01000  1
