CIF file written using JARVIS-Tools package.
data_PrCrO4
_symmetry_space_group_name_H-M  'I4_1/amd'
_cell_length_a       6.16108
_cell_length_b       6.16108
_cell_length_c       6.16108
_cell_angle_alpha    106.067
_cell_angle_beta     106.067
_cell_angle_gamma    116.518

_symmetry_Int_Tables_number  141
_chemical_formula_structural  PrCrO4
_chemical_formula_sum  Pr2Cr2O8
_cell_volume  177.96511240604727
_cell_formula_units_Z  2
loop_
  _symmetry_equiv_pos_site_id
 _symmetry_equiv_pos_as_xyz
 1  'x, y, z'
loop_
 _atom_site_type_symbol
 _atom_site_label
 _atom_site_symmetry_multiplicity
 _atom_site_fract_x
 _atom_site_fract_y
 _atom_site_fract_z
 _atom_site_fract_occupancy
 Cr  Cr1  1  0.37500  0.62500  0.75000  1
 Cr  Cr2  1  0.62500  0.37500  0.25000  1
 O  O1  1  0.79305  0.72139  0.42834  1
 O  O2  1  0.36470  0.79305  0.57166  1
 O  O3  1  0.72139  0.79305  0.92834  1
 O  O4  1  0.79305  0.36470  0.07166  1
 O  O5  1  0.63530  0.20695  0.42834  1
 O  O6  1  0.20695  0.27861  0.57166  1
 O  O7  1  0.20695  0.63530  0.92834  1
 O  O8  1  0.27861  0.20695  0.07166  1
 Pr  Pr1  1  0.12500  0.87500  0.25000  1
 Pr  Pr2  1  0.87500  0.12500  0.75000  1
