CIF file written using JARVIS-Tools package.
data_Ba2NdNbO6
_symmetry_space_group_name_H-M  'C2/m'
_cell_length_a       6.1076
_cell_length_b       6.13676
_cell_length_c       6.10233
_cell_angle_alpha    60.5784
_cell_angle_beta     59.9715
_cell_angle_gamma    60.1571

_symmetry_Int_Tables_number  12
_chemical_formula_structural  Ba2NdNbO6
_chemical_formula_sum  Ba2NdNbO6
_cell_volume  162.58299448917873
_cell_formula_units_Z  1
loop_
  _symmetry_equiv_pos_site_id
 _symmetry_equiv_pos_as_xyz
 1  'x, y, z'
loop_
 _atom_site_type_symbol
 _atom_site_label
 _atom_site_symmetry_multiplicity
 _atom_site_fract_x
 _atom_site_fract_y
 _atom_site_fract_z
 _atom_site_fract_occupancy
 Ba  Ba1  1  0.75144  0.74335  0.75378  1
 Ba  Ba2  1  0.24856  0.25665  0.24622  1
 Nb  Nb1  1  0.50000  0.50000  0.50000  1
 Nd  Nd1  1  0.00000  0.00000  0.00000  1
 O  O1  1  0.69842  0.30594  0.76507  1
 O  O2  1  0.76943  0.69406  0.23493  1
 O  O3  1  0.30158  0.69406  0.23493  1
 O  O4  1  0.23057  0.30594  0.76507  1
 O  O5  1  0.26939  0.79610  0.66511  1
 O  O6  1  0.73061  0.20390  0.33489  1
