CIF file written using JARVIS-Tools package.
data_BaTa2Bi2O9
_symmetry_space_group_name_H-M  'I4/mmm'
_cell_length_a       3.96811
_cell_length_b       3.96812
_cell_length_c       12.7704
_cell_angle_alpha    98.9379
_cell_angle_beta     98.9379
_cell_angle_gamma    90

_symmetry_Int_Tables_number  139
_chemical_formula_structural  BaTa2Bi2O9
_chemical_formula_sum  BaTa2Bi2O9
_cell_volume  196.16770056170407
_cell_formula_units_Z  1
loop_
  _symmetry_equiv_pos_site_id
 _symmetry_equiv_pos_as_xyz
 1  'x, y, z'
loop_
 _atom_site_type_symbol
 _atom_site_label
 _atom_site_symmetry_multiplicity
 _atom_site_fract_x
 _atom_site_fract_y
 _atom_site_fract_z
 _atom_site_fract_occupancy
 Ba  Ba1  1  0.00000  0.00000  0.00000  1
 Bi  Bi1  1  0.20083  0.20083  0.40165  1
 Bi  Bi2  1  0.79917  0.79917  0.59835  1
 O  O1  1  0.58181  0.08181  0.16362  1
 O  O2  1  0.08181  0.58181  0.16362  1
 O  O3  1  0.41819  0.91819  0.83638  1
 O  O4  1  0.91819  0.41819  0.83638  1
 O  O5  1  0.25000  0.75000  0.50000  1
 O  O6  1  0.50000  0.50000  -0.00000  1
 O  O7  1  0.33539  0.33539  0.67078  1
 O  O8  1  0.66461  0.66461  0.32922  1
 O  O9  1  0.75000  0.25000  0.50000  1
 Ta  Ta1  1  0.41097  0.41097  0.82193  1
 Ta  Ta2  1  0.58903  0.58903  0.17807  1
