CIF file written using JARVIS-Tools package.
data_UTe2
_symmetry_space_group_name_H-M  'P4/nmm'
_cell_length_a       4.47867
_cell_length_b       4.47867
_cell_length_c       8.80853
_cell_angle_alpha    90
_cell_angle_beta     90
_cell_angle_gamma    90

_symmetry_Int_Tables_number  129
_chemical_formula_structural  UTe2
_chemical_formula_sum  U2Te4
_cell_volume  176.68575649454436
_cell_formula_units_Z  2
loop_
  _symmetry_equiv_pos_site_id
 _symmetry_equiv_pos_as_xyz
 1  'x, y, z'
loop_
 _atom_site_type_symbol
 _atom_site_label
 _atom_site_symmetry_multiplicity
 _atom_site_fract_x
 _atom_site_fract_y
 _atom_site_fract_z
 _atom_site_fract_occupancy
 Te  Te1  1  0.50000  0.00000  0.36658  1
 Te  Te2  1  0.00000  0.50000  0.63342  1
 Te  Te3  1  0.00000  0.00000  0.00000  1
 Te  Te4  1  0.50000  0.50000  0.00000  1
 U  U1  1  0.50000  0.00000  0.73370  1
 U  U2  1  0.00000  0.50000  0.26630  1
