CIF file written using JARVIS-Tools package.
data_CaMn2O4
_symmetry_space_group_name_H-M  'Imma'
_cell_length_a       6.22568
_cell_length_b       6.22567
_cell_length_c       6.06378
_cell_angle_alpha    60.8566
_cell_angle_beta     60.8566
_cell_angle_gamma    60.368

_symmetry_Int_Tables_number  74
_chemical_formula_structural  CaMn2O4
_chemical_formula_sum  Ca2Mn4O8
_cell_volume  168.78259363794746
_cell_formula_units_Z  2
loop_
  _symmetry_equiv_pos_site_id
 _symmetry_equiv_pos_as_xyz
 1  'x, y, z'
loop_
 _atom_site_type_symbol
 _atom_site_label
 _atom_site_symmetry_multiplicity
 _atom_site_fract_x
 _atom_site_fract_y
 _atom_site_fract_z
 _atom_site_fract_occupancy
 Ca  Ca1  1  0.12500  0.62500  0.62500  1
 Ca  Ca2  1  0.62500  0.12500  0.62500  1
 Mn  Mn1  1  0.98780  0.98780  0.01220  1
 Mn  Mn2  1  0.26220  0.26220  0.23780  1
 Mn  Mn3  1  0.62500  0.62500  0.12500  1
 Mn  Mn4  1  0.62500  0.62500  0.62500  1
 O  O1  1  0.40860  0.40860  0.33173  1
 O  O2  1  0.41460  0.84845  0.36848  1
 O  O3  1  0.40860  0.40860  0.85108  1
 O  O4  1  0.84845  0.41460  0.36848  1
 O  O5  1  0.40155  0.83540  0.88152  1
 O  O6  1  0.83540  0.40155  0.88152  1
 O  O7  1  0.84140  0.84140  0.39892  1
 O  O8  1  0.84140  0.84140  0.91827  1
