CIF file written using JARVIS-Tools package.
data_Mn3O4F2
_symmetry_space_group_name_H-M  'P-1'
_cell_length_a       5.41692
_cell_length_b       5.4279
_cell_length_c       6.87048
_cell_angle_alpha    74.0192
_cell_angle_beta     73.4189
_cell_angle_gamma    76.7077

_symmetry_Int_Tables_number  2
_chemical_formula_structural  Mn3O4F2
_chemical_formula_sum  Mn6O8F4
_cell_volume  183.59878379079575
_cell_formula_units_Z  2
loop_
  _symmetry_equiv_pos_site_id
 _symmetry_equiv_pos_as_xyz
 1  'x, y, z'
loop_
 _atom_site_type_symbol
 _atom_site_label
 _atom_site_symmetry_multiplicity
 _atom_site_fract_x
 _atom_site_fract_y
 _atom_site_fract_z
 _atom_site_fract_occupancy
 F  F1  1  0.10167  0.56610  0.16887  1
 F  F2  1  0.89833  0.43390  0.83113  1
 F  F3  1  0.83116  0.21261  0.48404  1
 F  F4  1  0.16884  0.78739  0.51596  1
 Mn  Mn1  1  0.81013  0.85983  0.16789  1
 Mn  Mn2  1  0.50000  0.50000  -0.00000  1
 Mn  Mn3  1  0.19737  0.15811  0.32111  1
 Mn  Mn4  1  0.50000  0.50000  0.50000  1
 Mn  Mn5  1  0.18987  0.14017  0.83211  1
 Mn  Mn6  1  0.80263  0.84189  0.67889  1
 O  O1  1  0.53622  0.14775  0.15895  1
 O  O2  1  0.46378  0.85225  0.84105  1
 O  O3  1  0.58849  0.61529  0.20407  1
 O  O4  1  0.07029  0.06724  0.12825  1
 O  O5  1  0.41151  0.38471  0.79593  1
 O  O6  1  0.71168  0.75509  0.46234  1
 O  O7  1  0.92971  0.93276  0.87175  1
 O  O8  1  0.28832  0.24491  0.53766  1
