CIF file written using JARVIS-Tools package.
data_K2MnH2OF5
_symmetry_space_group_name_H-M  'P2_1/m'
_cell_length_a       5.88932
_cell_length_b       8.22337
_cell_length_c       6.08329
_cell_angle_alpha    90
_cell_angle_beta     96.1636
_cell_angle_gamma    90

_symmetry_Int_Tables_number  11
_chemical_formula_structural  K2MnH2OF5
_chemical_formula_sum  K4Mn2H4O2F0
_cell_volume  292.911374795682
_cell_formula_units_Z  2
loop_
  _symmetry_equiv_pos_site_id
 _symmetry_equiv_pos_as_xyz
 1  'x, y, z'
loop_
 _atom_site_type_symbol
 _atom_site_label
 _atom_site_symmetry_multiplicity
 _atom_site_fract_x
 _atom_site_fract_y
 _atom_site_fract_z
 _atom_site_fract_occupancy
 F  F1  1  0.04137  0.25000  0.97128  1
 F  F2  1  0.24321  0.96912  0.83112  1
 F  F3  1  0.75679  0.46912  0.16888  1
 F  F4  1  0.75679  0.03088  0.16888  1
 F  F5  1  0.24321  0.53088  0.83112  1
 F  F6  1  0.20764  0.99582  0.26406  1
 F  F7  1  0.95863  0.75000  0.02872  1
 F  F8  1  0.79236  0.49582  0.73594  1
 F  F9  1  0.20764  0.50418  0.26406  1
 F  F10  1  0.79236  0.00418  0.73594  1
 H  H1  1  0.62461  0.65286  0.61935  1
 H  H2  1  0.37539  0.15286  0.38065  1
 H  H3  1  0.37539  0.34714  0.38065  1
 H  H4  1  0.62461  0.84714  0.61935  1
 K  K1  1  0.07951  0.75000  0.51837  1
 K  K2  1  0.50144  0.25000  0.90635  1
 K  K3  1  0.49856  0.75000  0.09365  1
 K  K4  1  0.92049  0.25000  0.48163  1
 Mn  Mn1  1  0.00000  0.00000  0.00000  1
 Mn  Mn2  1  0.00000  0.50000  0.00000  1
 O  O1  1  0.55657  0.75000  0.54224  1
 O  O2  1  0.44343  0.25000  0.45776  1
