CIF file written using JARVIS-Tools package.
data_Cr3Ge
_symmetry_space_group_name_H-M  'Pm-3n'
_cell_length_a       4.57695
_cell_length_b       4.57695
_cell_length_c       4.57695
_cell_angle_alpha    90
_cell_angle_beta     90
_cell_angle_gamma    90

_symmetry_Int_Tables_number  223
_chemical_formula_structural  Cr3Ge
_chemical_formula_sum  Cr6Ge2
_cell_volume  95.87996340936486
_cell_formula_units_Z  2
loop_
  _symmetry_equiv_pos_site_id
 _symmetry_equiv_pos_as_xyz
 1  'x, y, z'
loop_
 _atom_site_type_symbol
 _atom_site_label
 _atom_site_symmetry_multiplicity
 _atom_site_fract_x
 _atom_site_fract_y
 _atom_site_fract_z
 _atom_site_fract_occupancy
 Cr  Cr1  1  0.25000  0.00000  0.50000  1
 Cr  Cr2  1  0.75000  0.00000  0.50000  1
 Cr  Cr3  1  0.00000  0.50000  0.25000  1
 Cr  Cr4  1  0.00000  0.50000  0.75000  1
 Cr  Cr5  1  0.50000  0.75000  0.00000  1
 Cr  Cr6  1  0.50000  0.25000  0.00000  1
 Ge  Ge1  1  0.00000  0.00000  0.00000  1
 Ge  Ge2  1  0.50000  0.50000  0.50000  1
