CIF file written using JARVIS-Tools package.
data_LiCoPO4
_symmetry_space_group_name_H-M  'P6_222'
_cell_length_a       5.21883
_cell_length_b       5.21883
_cell_length_c       12.6371
_cell_angle_alpha    90
_cell_angle_beta     90
_cell_angle_gamma    120

_symmetry_Int_Tables_number  180
_chemical_formula_structural  LiCoPO4
_chemical_formula_sum  Li3Co3P3O2
_cell_volume  298.0732326712126
_cell_formula_units_Z  3
loop_
  _symmetry_equiv_pos_site_id
 _symmetry_equiv_pos_as_xyz
 1  'x, y, z'
loop_
 _atom_site_type_symbol
 _atom_site_label
 _atom_site_symmetry_multiplicity
 _atom_site_fract_x
 _atom_site_fract_y
 _atom_site_fract_z
 _atom_site_fract_occupancy
 Co  Co1  1  0.00000  0.50000  0.16667  1
 Co  Co2  1  0.50000  0.00000  0.50000  1
 Co  Co3  1  0.50000  0.50000  0.83333  1
 Li  Li1  1  0.00000  0.00000  0.66667  1
 Li  Li2  1  0.00000  0.00000  0.33333  1
 Li  Li3  1  0.00000  0.00000  0.00000  1
 O  O1  1  0.21879  0.39988  0.26536  1
 O  O2  1  0.81891  0.60012  0.73464  1
 O  O3  1  0.18109  0.78121  0.59870  1
 O  O4  1  0.21879  0.81891  0.06797  1
 O  O5  1  0.18109  0.39988  0.73464  1
 O  O6  1  0.60012  0.78121  0.40130  1
 O  O7  1  0.81891  0.21879  0.59870  1
 O  O8  1  0.39988  0.18109  0.93203  1
 O  O9  1  0.60012  0.81891  0.93203  1
 O  O10  1  0.78121  0.18109  0.06797  1
 O  O11  1  0.39988  0.21879  0.40130  1
 O  O12  1  0.78121  0.60012  0.26536  1
 P  P1  1  0.50000  0.50000  0.33333  1
 P  P2  1  0.50000  0.00000  0.00000  1
 P  P3  1  0.00000  0.50000  0.66667  1
