CIF file written using JARVIS-Tools package.
data_MgSn2O4
_symmetry_space_group_name_H-M  'Pmmn'
_cell_length_a       6.97014
_cell_length_b       6.14181
_cell_length_c       11.1694
_cell_angle_alpha    89.9998
_cell_angle_beta     89.9998
_cell_angle_gamma    90.0017

_symmetry_Int_Tables_number  59
_chemical_formula_structural  MgSn2O4
_chemical_formula_sum  Mg4Sn8O6
_cell_volume  478.15325763455496
_cell_formula_units_Z  4
loop_
  _symmetry_equiv_pos_site_id
 _symmetry_equiv_pos_as_xyz
 1  'x, y, z'
loop_
 _atom_site_type_symbol
 _atom_site_label
 _atom_site_symmetry_multiplicity
 _atom_site_fract_x
 _atom_site_fract_y
 _atom_site_fract_z
 _atom_site_fract_occupancy
 Mg  Mg1  1  0.93504  0.25000  0.75000  1
 Mg  Mg2  1  0.06496  0.75000  0.25000  1
 Mg  Mg3  1  0.23451  0.25001  0.24999  1
 Mg  Mg4  1  0.76549  0.74999  0.75000  1
 O  O1  1  0.88563  0.75000  0.39757  1
 O  O2  1  0.78204  0.00471  0.63229  1
 O  O3  1  0.11454  0.25000  0.60248  1
 O  O4  1  0.11437  0.25001  0.89757  1
 O  O5  1  0.16514  0.75001  0.57902  1
 O  O6  1  0.16489  0.75001  0.92098  1
 O  O7  1  0.88546  0.75000  0.10248  1
 O  O8  1  0.83486  0.24999  0.07902  1
 O  O9  1  0.78187  0.00470  0.86771  1
 O  O10  1  0.21813  0.99530  0.36771  1
 O  O11  1  0.21796  0.50472  0.13229  1
 O  O12  1  0.21796  0.99529  0.13229  1
 O  O13  1  0.83511  0.24999  0.42098  1
 O  O14  1  0.78204  0.49528  0.63229  1
 O  O15  1  0.21813  0.50471  0.36771  1
 O  O16  1  0.78187  0.49529  0.86771  1
 Sn  Sn1  1  0.59779  0.24999  0.95019  1
 Sn  Sn2  1  0.40221  0.75001  0.45019  1
 Sn  Sn3  1  0.40202  0.75001  0.04975  1
 Sn  Sn4  1  0.59798  0.24999  0.54975  1
 Sn  Sn5  1  0.99989  0.00000  0.00001  1
 Sn  Sn6  1  0.00011  0.50000  0.50001  1
 Sn  Sn7  1  0.00011  -0.00000  0.50001  1
 Sn  Sn8  1  0.99989  0.50000  0.00001  1
