CIF file written using JARVIS-Tools package.
data_SbRhO4
_symmetry_space_group_name_H-M  'Cmmm'
_cell_length_a       3.21109
_cell_length_b       4.63271
_cell_length_c       4.63271
_cell_angle_alpha    90.9449
_cell_angle_beta     90
_cell_angle_gamma    90

_symmetry_Int_Tables_number  65
_chemical_formula_structural  SbRhO4
_chemical_formula_sum  SbRhO4
_cell_volume  68.90700042888494
_cell_formula_units_Z  1
loop_
  _symmetry_equiv_pos_site_id
 _symmetry_equiv_pos_as_xyz
 1  'x, y, z'
loop_
 _atom_site_type_symbol
 _atom_site_label
 _atom_site_symmetry_multiplicity
 _atom_site_fract_x
 _atom_site_fract_y
 _atom_site_fract_z
 _atom_site_fract_occupancy
 O  O1  1  0.00000  0.30789  0.30789  1
 O  O2  1  0.50000  0.80683  0.19317  1
 O  O3  1  0.50000  0.19317  0.80683  1
 O  O4  1  0.00000  0.69211  0.69211  1
 Rh  Rh1  1  0.50000  0.50000  0.50000  1
 Sb  Sb1  1  0.00000  0.00000  0.00000  1
