CIF file written using JARVIS-Tools package.
data_Li2Co3NiO8
_symmetry_space_group_name_H-M  'R-3m'
_cell_length_a       5.66142
_cell_length_b       5.66142
_cell_length_c       5.67888
_cell_angle_alpha    60.1017
_cell_angle_beta     119.898
_cell_angle_gamma    120

_symmetry_Int_Tables_number  166
_chemical_formula_structural  Li2Co3NiO8
_chemical_formula_sum  Li2Co3NiO8
_cell_volume  128.9033686935819
_cell_formula_units_Z  1
loop_
  _symmetry_equiv_pos_site_id
 _symmetry_equiv_pos_as_xyz
 1  'x, y, z'
loop_
 _atom_site_type_symbol
 _atom_site_label
 _atom_site_symmetry_multiplicity
 _atom_site_fract_x
 _atom_site_fract_y
 _atom_site_fract_z
 _atom_site_fract_occupancy
 Co  Co1  1  0.50000  0.50000  -0.00000  1
 Co  Co2  1  0.50000  -0.00000  -0.00000  1
 Co  Co3  1  -0.00000  0.50000  -0.00000  1
 Li  Li1  1  0.87342  0.12658  0.62026  1
 Li  Li2  1  0.12658  0.87342  0.37974  1
 Ni  Ni1  1  0.50000  0.50000  0.50000  1
 O  O1  1  0.73699  0.70947  0.76450  1
 O  O2  1  0.73699  0.26301  0.76450  1
 O  O3  1  0.26413  0.73587  0.79240  1
 O  O4  1  0.29053  0.26301  0.76450  1
 O  O5  1  0.70947  0.73699  0.23550  1
 O  O6  1  0.73587  0.26413  0.20760  1
 O  O7  1  0.26301  0.73699  0.23550  1
 O  O8  1  0.26301  0.29053  0.23550  1
