CIF file written using JARVIS-Tools package.
data_VNCl4
_symmetry_space_group_name_H-M  'P-1'
_cell_length_a       5.91119
_cell_length_b       7.00205
_cell_length_c       7.63907
_cell_angle_alpha    108.437
_cell_angle_beta     95.7472
_cell_angle_gamma    111.273

_symmetry_Int_Tables_number  2
_chemical_formula_structural  VNCl4
_chemical_formula_sum  V2N2Cl8
_cell_volume  271.13488750421396
_cell_formula_units_Z  2
loop_
  _symmetry_equiv_pos_site_id
 _symmetry_equiv_pos_as_xyz
 1  'x, y, z'
loop_
 _atom_site_type_symbol
 _atom_site_label
 _atom_site_symmetry_multiplicity
 _atom_site_fract_x
 _atom_site_fract_y
 _atom_site_fract_z
 _atom_site_fract_occupancy
 Cl  Cl1  1  0.90194  0.19537  0.34357  1
 Cl  Cl2  1  0.09806  0.80463  0.65643  1
 Cl  Cl3  1  0.44518  0.23449  0.59039  1
 Cl  Cl4  1  0.55482  0.76551  0.40961  1
 Cl  Cl5  1  0.51858  0.71162  0.95113  1
 Cl  Cl6  1  0.48142  0.28838  0.04887  1
 Cl  Cl7  1  0.95520  0.27443  0.84360  1
 Cl  Cl8  1  0.04480  0.72557  0.15640  1
 N  N1  1  0.90826  0.65296  0.74126  1
 N  N2  1  0.09174  0.34704  0.25874  1
 V  V1  1  0.26674  0.49857  0.15412  1
 V  V2  1  0.73326  0.50143  0.84588  1
