CIF file written using JARVIS-Tools package.
data_ZnFe4S8
_symmetry_space_group_name_H-M  'R-3m'
_cell_length_a       6.69881
_cell_length_b       6.79007
_cell_length_c       6.79006
_cell_angle_alpha    60
_cell_angle_beta     59.5483
_cell_angle_gamma    59.5483

_symmetry_Int_Tables_number  166
_chemical_formula_structural  ZnFe4S8
_chemical_formula_sum  ZnFe4S8
_cell_volume  216.8859672849908
_cell_formula_units_Z  1
loop_
  _symmetry_equiv_pos_site_id
 _symmetry_equiv_pos_as_xyz
 1  'x, y, z'
loop_
 _atom_site_type_symbol
 _atom_site_label
 _atom_site_symmetry_multiplicity
 _atom_site_fract_x
 _atom_site_fract_y
 _atom_site_fract_z
 _atom_site_fract_occupancy
 Fe  Fe1  1  -0.00000  0.50000  0.50000  1
 Fe  Fe2  1  0.50000  0.50000  0.00000  1
 Fe  Fe3  1  0.50000  0.50000  0.50000  1
 Fe  Fe4  1  0.50000  0.00000  0.50000  1
 S  S1  1  0.26189  0.25790  0.25790  1
 S  S2  1  0.26189  0.25790  0.72232  1
 S  S3  1  0.26189  0.72232  0.25790  1
 S  S4  1  0.72808  0.25731  0.25731  1
 S  S5  1  0.27192  0.74269  0.74269  1
 S  S6  1  0.73811  0.74210  0.27768  1
 S  S7  1  0.73811  0.27768  0.74210  1
 S  S8  1  0.73811  0.74210  0.74210  1
 Zn  Zn1  1  0.50000  0.00000  -0.00000  1
