CIF file written using JARVIS-Tools package.
data_H3F2
_symmetry_space_group_name_H-M  'P1'
_cell_length_a       4.89161
_cell_length_b       4.16614
_cell_length_c       6.51431
_cell_angle_alpha    115.633
_cell_angle_beta     68.1266
_cell_angle_gamma    125.974

_symmetry_Int_Tables_number  1
_chemical_formula_structural  H3F2
_chemical_formula_sum  H6F4
_cell_volume  95.57881098825462
_cell_formula_units_Z  2
loop_
  _symmetry_equiv_pos_site_id
 _symmetry_equiv_pos_as_xyz
 1  'x, y, z'
loop_
 _atom_site_type_symbol
 _atom_site_label
 _atom_site_symmetry_multiplicity
 _atom_site_fract_x
 _atom_site_fract_y
 _atom_site_fract_z
 _atom_site_fract_occupancy
 F  F1  1  0.98514  0.71706  0.14077  1
 F  F2  1  0.71299  0.11937  0.27448  1
 F  F3  1  0.86882  0.87997  0.72507  1
 F  F4  1  0.41015  0.28334  0.85951  1
 H  H1  1  0.87407  0.47077  0.19735  1
 H  H2  1  0.82379  0.95076  0.22301  1
 H  H3  1  0.27112  0.38655  0.46994  1
 H  H4  1  0.35502  0.61403  0.53046  1
 H  H5  1  0.09709  0.04900  0.77688  1
 H  H6  1  0.60183  0.52916  0.80252  1
