CIF file written using JARVIS-Tools package.
data_CrO2
_symmetry_space_group_name_H-M  'C2/m'
_cell_length_a       2.89775
_cell_length_b       2.89764
_cell_length_c       9.43044
_cell_angle_alpha    72.707
_cell_angle_beta     90.0543
_cell_angle_gamma    120.016

_symmetry_Int_Tables_number  12
_chemical_formula_structural  CrO2
_chemical_formula_sum  Cr2O4
_cell_volume  64.41040523006802
_cell_formula_units_Z  2
loop_
  _symmetry_equiv_pos_site_id
 _symmetry_equiv_pos_as_xyz
 1  'x, y, z'
loop_
 _atom_site_type_symbol
 _atom_site_label
 _atom_site_symmetry_multiplicity
 _atom_site_fract_x
 _atom_site_fract_y
 _atom_site_fract_z
 _atom_site_fract_occupancy
 Cr  Cr1  1  0.99725  -0.00120  0.50210  1
 Cr  Cr2  1  0.99829  0.00068  0.00205  1
 O  O1  1  0.73257  0.46994  0.39524  1
 O  O2  1  0.59640  0.19631  0.10879  1
 O  O3  1  0.26197  0.52765  0.60897  1
 O  O4  1  0.40019  0.80505  0.89531  1
