CIF file written using JARVIS-Tools package.
data_Mo3WSe2S6
_symmetry_space_group_name_H-M  'P-6m2'
_cell_length_a       3.22572
_cell_length_b       3.22564
_cell_length_c       25.3229
_cell_angle_alpha    90.0029
_cell_angle_beta     90
_cell_angle_gamma    120.001

_symmetry_Int_Tables_number  187
_chemical_formula_structural  Mo3WSe2S6
_chemical_formula_sum  Mo3WSe2S6
_cell_volume  228.1828339181602
_cell_formula_units_Z  1
loop_
  _symmetry_equiv_pos_site_id
 _symmetry_equiv_pos_as_xyz
 1  'x, y, z'
loop_
 _atom_site_type_symbol
 _atom_site_label
 _atom_site_symmetry_multiplicity
 _atom_site_fract_x
 _atom_site_fract_y
 _atom_site_fract_z
 _atom_site_fract_occupancy
 Mo  Mo1  1  0.33309  0.66618  0.00556  1
 Mo  Mo2  1  0.33384  0.66769  0.49591  1
 Mo  Mo3  1  0.66661  0.33322  0.25076  1
 S  S1  1  0.33329  0.66658  0.31220  1
 S  S2  1  0.66641  0.33282  -0.05590  1
 S  S3  1  0.66717  0.33434  0.43448  1
 S  S4  1  0.66644  0.33289  0.06699  1
 S  S5  1  0.66719  0.33438  0.55737  1
 S  S6  1  0.33325  0.66651  0.18933  1
 Se  Se1  1  0.33313  0.66627  0.81865  1
 Se  Se2  1  0.33311  0.66622  0.68271  1
 W  W1  1  0.66646  0.33292  0.75068  1
