CIF file written using JARVIS-Tools package.
data_SbI3Br2Cl6
_symmetry_space_group_name_H-M  'P-1'
_cell_length_a       7.19821
_cell_length_b       7.23811
_cell_length_c       7.70793
_cell_angle_alpha    87.3465
_cell_angle_beta     83.1856
_cell_angle_gamma    81.6282

_symmetry_Int_Tables_number  2
_chemical_formula_structural  SbI3Br2Cl6
_chemical_formula_sum  SbI3Br2Cl6
_cell_volume  394.33576629367093
_cell_formula_units_Z  1
loop_
  _symmetry_equiv_pos_site_id
 _symmetry_equiv_pos_as_xyz
 1  'x, y, z'
loop_
 _atom_site_type_symbol
 _atom_site_label
 _atom_site_symmetry_multiplicity
 _atom_site_fract_x
 _atom_site_fract_y
 _atom_site_fract_z
 _atom_site_fract_occupancy
 Br  Br1  1  0.51341  0.74768  0.09349  1
 Br  Br2  1  0.48659  0.25232  0.90651  1
 Cl  Cl1  1  0.84042  0.21831  0.50006  1
 Cl  Cl2  1  0.90312  0.52684  0.80571  1
 Cl  Cl3  1  0.15958  0.78169  0.49994  1
 Cl  Cl4  1  0.28870  0.29889  0.55762  1
 Cl  Cl5  1  0.71130  0.70111  0.44238  1
 Cl  Cl6  1  0.09688  0.47316  0.19429  1
 I  I1  1  0.33637  0.77136  0.82530  1
 I  I2  1  0.00000  0.00000  0.00000  1
 I  I3  1  0.66363  0.22864  0.17470  1
 Sb  Sb1  1  0.00000  0.50000  0.50000  1
