CIF file written using JARVIS-Tools package.
data_Na5InO4
_symmetry_space_group_name_H-M  'Pmmn'
_cell_length_a       5.49151
_cell_length_b       7.41179
_cell_length_c       7.6385
_cell_angle_alpha    90
_cell_angle_beta     90
_cell_angle_gamma    90

_symmetry_Int_Tables_number  59
_chemical_formula_structural  Na5InO4
_chemical_formula_sum  Na0In2O8
_cell_volume  310.9016394921624
_cell_formula_units_Z  2
loop_
  _symmetry_equiv_pos_site_id
 _symmetry_equiv_pos_as_xyz
 1  'x, y, z'
loop_
 _atom_site_type_symbol
 _atom_site_label
 _atom_site_symmetry_multiplicity
 _atom_site_fract_x
 _atom_site_fract_y
 _atom_site_fract_z
 _atom_site_fract_occupancy
 In  In1  1  0.77856  0.50000  0.50000  1
 In  In2  1  0.22144  0.00000  0.00000  1
 Na  Na1  1  0.25539  0.73981  0.69433  1
 Na  Na2  1  0.74461  0.23981  0.80567  1
 Na  Na3  1  0.80382  0.00000  0.50000  1
 Na  Na4  1  0.19618  0.50000  0.00000  1
 Na  Na5  1  0.25539  0.26019  0.69433  1
 Na  Na6  1  0.25539  0.73981  0.30567  1
 Na  Na7  1  0.74461  0.76019  0.80567  1
 Na  Na8  1  0.74461  0.23981  0.19433  1
 Na  Na9  1  0.74461  0.76019  0.19433  1
 Na  Na10  1  0.25539  0.26019  0.30567  1
 O  O1  1  0.57699  0.73939  0.50000  1
 O  O2  1  0.98274  0.50000  0.26577  1
 O  O3  1  0.01726  0.00000  0.23423  1
 O  O4  1  0.01726  0.00000  0.76577  1
 O  O5  1  0.42301  0.76061  0.00000  1
 O  O6  1  0.42301  0.23939  0.00000  1
 O  O7  1  0.57699  0.26061  0.50000  1
 O  O8  1  0.98274  0.50000  0.73423  1
