CIF file written using JARVIS-Tools package.
data_Mg2H4Ru
_symmetry_space_group_name_H-M  'Cmcm'
_cell_length_a       5.44801
_cell_length_b       5.44801
_cell_length_c       4.8134
_cell_angle_alpha    90
_cell_angle_beta     90
_cell_angle_gamma    79.5531

_symmetry_Int_Tables_number  63
_chemical_formula_structural  Mg2H4Ru
_chemical_formula_sum  Mg4H8Ru2
_cell_volume  140.49738459181674
_cell_formula_units_Z  2
loop_
  _symmetry_equiv_pos_site_id
 _symmetry_equiv_pos_as_xyz
 1  'x, y, z'
loop_
 _atom_site_type_symbol
 _atom_site_label
 _atom_site_symmetry_multiplicity
 _atom_site_fract_x
 _atom_site_fract_y
 _atom_site_fract_z
 _atom_site_fract_occupancy
 H  H1  1  0.35403  0.86747  0.25000  1
 H  H2  1  0.13253  0.64597  0.75000  1
 H  H3  1  0.64597  0.13253  0.75000  1
 H  H4  1  0.86747  0.35403  0.25000  1
 H  H5  1  0.27956  0.27956  0.01406  1
 H  H6  1  0.72044  0.72044  0.98594  1
 H  H7  1  0.27956  0.27956  0.48594  1
 H  H8  1  0.72044  0.72044  0.51406  1
 Mg  Mg1  1  0.06979  0.64765  0.25000  1
 Mg  Mg2  1  0.35235  0.93021  0.75000  1
 Mg  Mg3  1  0.93021  0.35235  0.75000  1
 Mg  Mg4  1  0.64765  0.06979  0.25000  1
 Ru  Ru1  1  0.13142  0.13142  0.25000  1
 Ru  Ru2  1  0.86858  0.86858  0.75000  1
