CIF file written using JARVIS-Tools package.
data_LuMg16Al12
_symmetry_space_group_name_H-M  'I-43m'
_cell_length_a       9.12979
_cell_length_b       9.12979
_cell_length_c       9.12979
_cell_angle_alpha    109.471
_cell_angle_beta     109.471
_cell_angle_gamma    109.471

_symmetry_Int_Tables_number  217
_chemical_formula_structural  LuMg16Al12
_chemical_formula_sum  LuMg6Al2
_cell_volume  585.8144808418098
_cell_formula_units_Z  1
loop_
  _symmetry_equiv_pos_site_id
 _symmetry_equiv_pos_as_xyz
 1  'x, y, z'
loop_
 _atom_site_type_symbol
 _atom_site_label
 _atom_site_symmetry_multiplicity
 _atom_site_fract_x
 _atom_site_fract_y
 _atom_site_fract_z
 _atom_site_fract_occupancy
 Al  Al1  1  0.18657  0.18657  0.81937  1
 Al  Al2  1  -0.00000  0.63279  0.81343  1
 Al  Al3  1  0.63280  0.81343  -0.00000  1
 Al  Al4  1  0.36721  0.36721  0.18063  1
 Al  Al5  1  0.81937  0.18657  0.18657  1
 Al  Al6  1  0.81343  0.63279  -0.00000  1
 Al  Al7  1  0.36721  0.18063  0.36721  1
 Al  Al8  1  0.18063  0.36721  0.36721  1
 Al  Al9  1  0.81343  -0.00000  0.63279  1
 Al  Al10  1  -0.00000  0.81343  0.63280  1
 Al  Al11  1  0.63279  -0.00000  0.81343  1
 Al  Al12  1  0.18657  0.81937  0.18657  1
 Lu  Lu1  1  0.00000  0.00000  0.00000  1
 Mg  Mg1  1  0.31889  0.60442  0.00000  1
 Mg  Mg2  1  0.68111  0.68111  0.28553  1
 Mg  Mg3  1  0.35342  1.00000  1.00000  1
 Mg  Mg4  1  1.00000  1.00000  0.35342  1
 Mg  Mg5  1  0.00000  0.60442  0.31889  1
 Mg  Mg6  1  0.60442  0.00000  0.31889  1
 Mg  Mg7  1  0.68111  0.28553  0.68111  1
 Mg  Mg8  1  0.71447  0.39558  0.39558  1
 Mg  Mg9  1  0.39558  0.71447  0.39558  1
 Mg  Mg10  1  0.31889  0.00000  0.60442  1
 Mg  Mg11  1  0.00000  0.31889  0.60442  1
 Mg  Mg12  1  0.64657  0.64657  0.64657  1
 Mg  Mg13  1  0.28553  0.68111  0.68111  1
 Mg  Mg14  1  0.39558  0.39558  0.71447  1
 Mg  Mg15  1  0.60442  0.31889  0.00000  1
 Mg  Mg16  1  1.00000  0.35342  1.00000  1
