CIF file written using JARVIS-Tools package.
data_MnAlGe
_symmetry_space_group_name_H-M  'P4/nmm'
_cell_length_a       3.90287
_cell_length_b       3.90287
_cell_length_c       5.89566
_cell_angle_alpha    90
_cell_angle_beta     90
_cell_angle_gamma    90

_symmetry_Int_Tables_number  129
_chemical_formula_structural  MnAlGe
_chemical_formula_sum  Mn2Al2Ge2
_cell_volume  89.80494006722701
_cell_formula_units_Z  2
loop_
  _symmetry_equiv_pos_site_id
 _symmetry_equiv_pos_as_xyz
 1  'x, y, z'
loop_
 _atom_site_type_symbol
 _atom_site_label
 _atom_site_symmetry_multiplicity
 _atom_site_fract_x
 _atom_site_fract_y
 _atom_site_fract_z
 _atom_site_fract_occupancy
 Al  Al1  1  0.50000  0.00000  0.70701  1
 Al  Al2  1  0.00000  0.50000  0.29299  1
 Ge  Ge1  1  0.00000  0.50000  0.72283  1
 Ge  Ge2  1  0.50000  0.00000  0.27717  1
 Mn  Mn1  1  0.00000  0.00000  0.00000  1
 Mn  Mn2  1  0.50000  0.50000  0.00000  1
