CIF file written using JARVIS-Tools package.
data_RbCrI3
_symmetry_space_group_name_H-M  'C2/m'
_cell_length_a       6.84452
_cell_length_b       7.92737
_cell_length_c       7.92738
_cell_angle_alpha    60.1929
_cell_angle_beta     84.8859
_cell_angle_gamma    84.8859

_symmetry_Int_Tables_number  12
_chemical_formula_structural  RbCrI3
_chemical_formula_sum  Rb2Cr2I6
_cell_volume  371.24170364162114
_cell_formula_units_Z  2
loop_
  _symmetry_equiv_pos_site_id
 _symmetry_equiv_pos_as_xyz
 1  'x, y, z'
loop_
 _atom_site_type_symbol
 _atom_site_label
 _atom_site_symmetry_multiplicity
 _atom_site_fract_x
 _atom_site_fract_y
 _atom_site_fract_z
 _atom_site_fract_occupancy
 Cr  Cr1  1  0.00000  0.00000  0.00000  1
 Cr  Cr2  1  0.50000  -0.00000  0.00000  1
 I  I1  1  0.20698  0.16713  0.16713  1
 I  I2  1  0.27223  0.16354  0.66567  1
 I  I3  1  0.27223  0.66567  0.16354  1
 I  I4  1  0.72777  0.33433  0.83646  1
 I  I5  1  0.72777  0.83646  0.33433  1
 I  I6  1  0.79302  0.83287  0.83287  1
 Rb  Rb1  1  0.25268  0.66145  0.66145  1
 Rb  Rb2  1  0.74732  0.33855  0.33855  1
