CIF file written using JARVIS-Tools package.
data_Li4V2SiGeO10
_symmetry_space_group_name_H-M  'P-4m2'
_cell_length_a       6.47033
_cell_length_b       6.47033
_cell_length_c       4.50373
_cell_angle_alpha    90
_cell_angle_beta     90
_cell_angle_gamma    90

_symmetry_Int_Tables_number  115
_chemical_formula_structural  Li4V2SiGeO10
_chemical_formula_sum  Li4V2SiGeO0
_cell_volume  188.54941559250332
_cell_formula_units_Z  1
loop_
  _symmetry_equiv_pos_site_id
 _symmetry_equiv_pos_as_xyz
 1  'x, y, z'
loop_
 _atom_site_type_symbol
 _atom_site_label
 _atom_site_symmetry_multiplicity
 _atom_site_fract_x
 _atom_site_fract_y
 _atom_site_fract_z
 _atom_site_fract_occupancy
 Ge  Ge1  1  0.50000  0.50000  0.50000  1
 Li  Li1  1  0.75552  0.75552  0.00000  1
 Li  Li2  1  0.75552  0.24448  0.00000  1
 Li  Li3  1  0.24448  0.75552  0.00000  1
 Li  Li4  1  0.24448  0.24448  0.00000  1
 O  O1  1  0.50000  0.00000  0.77610  1
 O  O2  1  0.00000  0.50000  0.22390  1
 O  O3  1  0.00000  0.20497  0.71842  1
 O  O4  1  0.79503  0.00000  0.28158  1
 O  O5  1  0.20497  0.00000  0.28158  1
 O  O6  1  0.50000  0.28366  0.25864  1
 O  O7  1  0.50000  0.71634  0.25864  1
 O  O8  1  0.00000  0.79503  0.71842  1
 O  O9  1  0.28366  0.50000  0.74136  1
 O  O10  1  0.71634  0.50000  0.74136  1
 Si  Si1  1  0.00000  0.00000  0.50000  1
 V  V1  1  0.50000  0.00000  0.40761  1
 V  V2  1  0.00000  0.50000  0.59239  1
