CIF file written using JARVIS-Tools package.
data_K4MnCl6
_symmetry_space_group_name_H-M  'Im-3m'
_cell_length_a       8.79051
_cell_length_b       8.7905
_cell_length_c       8.7905
_cell_angle_alpha    89.993
_cell_angle_beta     89.993
_cell_angle_gamma    89.993

_symmetry_Int_Tables_number  229
_chemical_formula_structural  K4MnCl6
_chemical_formula_sum  K8Mn2Cl2
_cell_volume  679.2678024934693
_cell_formula_units_Z  2
loop_
  _symmetry_equiv_pos_site_id
 _symmetry_equiv_pos_as_xyz
 1  'x, y, z'
loop_
 _atom_site_type_symbol
 _atom_site_label
 _atom_site_symmetry_multiplicity
 _atom_site_fract_x
 _atom_site_fract_y
 _atom_site_fract_z
 _atom_site_fract_occupancy
 Cl  Cl1  1  0.25003  0.25003  0.95828  1
 Cl  Cl2  1  0.75003  0.45828  0.75003  1
 Cl  Cl3  1  0.45828  0.75003  0.75003  1
 Cl  Cl4  1  0.04172  0.74997  0.74997  1
 Cl  Cl5  1  0.74997  0.74997  0.04172  1
 Cl  Cl6  1  0.74997  0.04172  0.74997  1
 Cl  Cl7  1  0.24997  0.24997  0.54172  1
 Cl  Cl8  1  0.24997  0.54172  0.24997  1
 Cl  Cl9  1  0.54172  0.24997  0.24997  1
 Cl  Cl10  1  0.75003  0.75003  0.45828  1
 Cl  Cl11  1  0.25003  0.95828  0.25003  1
 Cl  Cl12  1  0.95828  0.25003  0.25003  1
 K  K1  1  0.50000  -0.00000  0.50000  1
 K  K2  1  -0.00000  0.50000  0.50000  1
 K  K3  1  0.50000  0.50000  0.00000  1
 K  K4  1  0.00000  0.50000  0.00000  1
 K  K5  1  0.50000  -0.00000  0.00000  1
 K  K6  1  -0.00000  -0.00000  0.50000  1
 K  K7  1  0.50000  0.50000  0.50000  1
 K  K8  1  0.00000  0.00000  0.00000  1
 Mn  Mn1  1  0.75000  0.75000  0.75000  1
 Mn  Mn2  1  0.25000  0.25000  0.25000  1
