CIF file written using JARVIS-Tools package.
data_CdSO4
_symmetry_space_group_name_H-M  'Cmcm'
_cell_length_a       4.91651
_cell_length_b       4.91651
_cell_length_c       7.19183
_cell_angle_alpha    90
_cell_angle_beta     90
_cell_angle_gamma    113.467

_symmetry_Int_Tables_number  63
_chemical_formula_structural  CdSO4
_chemical_formula_sum  Cd2S2O8
_cell_volume  159.46310696032742
_cell_formula_units_Z  2
loop_
  _symmetry_equiv_pos_site_id
 _symmetry_equiv_pos_as_xyz
 1  'x, y, z'
loop_
 _atom_site_type_symbol
 _atom_site_label
 _atom_site_symmetry_multiplicity
 _atom_site_fract_x
 _atom_site_fract_y
 _atom_site_fract_z
 _atom_site_fract_occupancy
 Cd  Cd1  1  0.00000  0.00000  0.50000  1
 Cd  Cd2  1  0.00000  0.00000  0.00000  1
 O  O1  1  0.24431  0.30353  0.75000  1
 O  O2  1  0.75569  0.69647  0.25000  1
 O  O3  1  0.30353  0.24431  0.25000  1
 O  O4  1  0.69647  0.75569  0.75000  1
 O  O5  1  0.26722  0.73278  0.92219  1
 O  O6  1  0.73278  0.26722  0.42219  1
 O  O7  1  0.73278  0.26722  0.07781  1
 O  O8  1  0.26722  0.73278  0.57781  1
 S  S1  1  0.63754  0.36246  0.25000  1
 S  S2  1  0.36246  0.63754  0.75000  1
