CIF file written using JARVIS-Tools package.
data_CoHO2
_symmetry_space_group_name_H-M  'P6_3/mmc'
_cell_length_a       2.88077
_cell_length_b       2.88064
_cell_length_c       8.65853
_cell_angle_alpha    90
_cell_angle_beta     90
_cell_angle_gamma    120.002

_symmetry_Int_Tables_number  194
_chemical_formula_structural  CoHO2
_chemical_formula_sum  Co2H2O4
_cell_volume  62.2251580594332
_cell_formula_units_Z  2
loop_
  _symmetry_equiv_pos_site_id
 _symmetry_equiv_pos_as_xyz
 1  'x, y, z'
loop_
 _atom_site_type_symbol
 _atom_site_label
 _atom_site_symmetry_multiplicity
 _atom_site_fract_x
 _atom_site_fract_y
 _atom_site_fract_z
 _atom_site_fract_occupancy
 Co  Co1  1  0.00000  0.00000  0.50000  1
 Co  Co2  1  0.00000  0.00000  0.00000  1
 H  H1  1  0.33333  0.66666  0.25000  1
 H  H2  1  0.66667  0.33334  0.75000  1
 O  O1  1  0.33335  0.66669  0.38969  1
 O  O2  1  0.66665  0.33331  0.61031  1
 O  O3  1  0.66665  0.33331  0.88969  1
 O  O4  1  0.33335  0.66669  0.11031  1
