CIF file written using JARVIS-Tools package.
data_KPrTe4
_symmetry_space_group_name_H-M  'P4/nbm'
_cell_length_a       6.97072
_cell_length_b       6.97072
_cell_length_c       8.75088
_cell_angle_alpha    90
_cell_angle_beta     90
_cell_angle_gamma    90

_symmetry_Int_Tables_number  125
_chemical_formula_structural  KPrTe4
_chemical_formula_sum  K2Pr2Te8
_cell_volume  425.2131346636996
_cell_formula_units_Z  2
loop_
  _symmetry_equiv_pos_site_id
 _symmetry_equiv_pos_as_xyz
 1  'x, y, z'
loop_
 _atom_site_type_symbol
 _atom_site_label
 _atom_site_symmetry_multiplicity
 _atom_site_fract_x
 _atom_site_fract_y
 _atom_site_fract_z
 _atom_site_fract_occupancy
 K  K1  1  0.50000  0.50000  0.00000  1
 K  K2  1  0.00000  0.00000  0.00000  1
 Pr  Pr1  1  0.50000  0.50000  0.50000  1
 Pr  Pr2  1  0.00000  0.00000  0.50000  1
 Te  Te1  1  0.35606  0.85606  0.27871  1
 Te  Te2  1  0.14394  0.35606  0.27871  1
 Te  Te3  1  0.85606  0.64394  0.27871  1
 Te  Te4  1  0.35606  0.14394  0.72129  1
 Te  Te5  1  0.64394  0.85606  0.72129  1
 Te  Te6  1  0.64394  0.14394  0.27871  1
 Te  Te7  1  0.85606  0.35606  0.72129  1
 Te  Te8  1  0.14394  0.64394  0.72129  1
