CIF file written using JARVIS-Tools package.
data_BaH4O6
_symmetry_space_group_name_H-M  'P1'
_cell_length_a       5.43084
_cell_length_b       5.75681
_cell_length_c       7.87222
_cell_angle_alpha    82.9549
_cell_angle_beta     85.6775
_cell_angle_gamma    72.7321

_symmetry_Int_Tables_number  1
_chemical_formula_structural  BaH4O6
_chemical_formula_sum  Ba2H8O2
_cell_volume  233.05486942310483
_cell_formula_units_Z  2
loop_
  _symmetry_equiv_pos_site_id
 _symmetry_equiv_pos_as_xyz
 1  'x, y, z'
loop_
 _atom_site_type_symbol
 _atom_site_label
 _atom_site_symmetry_multiplicity
 _atom_site_fract_x
 _atom_site_fract_y
 _atom_site_fract_z
 _atom_site_fract_occupancy
 Ba  Ba1  1  0.83767  0.17882  0.22866  1
 Ba  Ba2  1  0.18124  0.79913  0.76629  1
 H  H1  1  0.36279  0.26810  0.94713  1
 H  H2  1  0.22104  0.58500  0.36022  1
 H  H3  1  0.74259  0.71979  0.28198  1
 H  H4  1  0.80587  0.56615  0.53990  1
 H  H5  1  0.86810  0.36054  0.85009  1
 H  H6  1  0.57942  0.45019  0.52092  1
 H  H7  1  0.25242  0.33107  0.47600  1
 H  H8  1  0.61752  0.68910  0.02983  1
 O  O1  1  0.77081  0.41075  0.52619  1
 O  O2  1  0.82810  0.80249  0.04060  1
 O  O3  1  0.78600  -0.12303  0.54482  1
 O  O4  1  0.20446  0.19626  0.96111  1
 O  O5  1  0.25493  0.04668  0.44079  1
 O  O6  1  0.48250  0.58682  0.05038  1
 O  O7  1  0.61871  -0.04071  0.67255  1
 O  O8  1  0.05881  0.31925  0.80542  1
 O  O9  1  0.27859  0.49774  0.47229  1
 O  O10  1  0.42688  0.97129  0.30896  1
 O  O11  1  0.90771  0.66784  0.21215  1
 O  O12  1  0.57238  0.40180  0.92269  1
