CIF file written using JARVIS-Tools package.
data_Ag3SI
_symmetry_space_group_name_H-M  'R32'
_cell_length_a       8.6601
_cell_length_b       4.95897
_cell_length_c       4.95898
_cell_angle_alpha    88.575
_cell_angle_beta     53.0511
_cell_angle_gamma    55.0667

_symmetry_Int_Tables_number  155
_chemical_formula_structural  Ag3SI
_chemical_formula_sum  Ag3SI
_cell_volume  121.83312339864553
_cell_formula_units_Z  1
loop_
  _symmetry_equiv_pos_site_id
 _symmetry_equiv_pos_as_xyz
 1  'x, y, z'
loop_
 _atom_site_type_symbol
 _atom_site_label
 _atom_site_symmetry_multiplicity
 _atom_site_fract_x
 _atom_site_fract_y
 _atom_site_fract_z
 _atom_site_fract_occupancy
 Ag  Ag1  1  0.08107  0.41893  -0.00000  1
 Ag  Ag2  1  0.50000  0.41893  0.41893  1
 Ag  Ag3  1  0.91893  0.16215  0.58107  1
 I  I1  1  0.50000  0.00000  -0.00000  1
 S  S1  1  0.00000  0.00000  0.00000  1
