CIF file written using JARVIS-Tools package.
data_Sr3Ge2B6O16
_symmetry_space_group_name_H-M  'P-1'
_cell_length_a       5.03709
_cell_length_b       7.35546
_cell_length_c       8.5431
_cell_angle_alpha    103.6
_cell_angle_beta     102.8
_cell_angle_gamma    89.8043

_symmetry_Int_Tables_number  2
_chemical_formula_structural  Sr3Ge2B6O16
_chemical_formula_sum  Sr3Ge2B6O6
_cell_volume  299.60668357871475
_cell_formula_units_Z  1
loop_
  _symmetry_equiv_pos_site_id
 _symmetry_equiv_pos_as_xyz
 1  'x, y, z'
loop_
 _atom_site_type_symbol
 _atom_site_label
 _atom_site_symmetry_multiplicity
 _atom_site_fract_x
 _atom_site_fract_y
 _atom_site_fract_z
 _atom_site_fract_occupancy
 B  B1  1  0.54097  0.18680  0.45940  1
 B  B2  1  0.73037  0.76008  0.80477  1
 B  B3  1  0.26963  0.23992  0.19523  1
 B  B4  1  0.53964  0.40992  0.73955  1
 B  B5  1  0.45903  0.81320  0.54060  1
 B  B6  1  0.46036  0.59008  0.26045  1
 Ge  Ge1  1  0.70065  0.31306  0.05229  1
 Ge  Ge2  1  0.29935  0.68694  0.94771  1
 O  O1  1  0.41055  0.27141  0.58397  1
 O  O2  1  0.58945  0.72859  0.41603  1
 O  O3  1  0.81393  0.17782  0.48734  1
 O  O4  1  0.97027  0.18953  0.14186  1
 O  O5  1  0.18607  0.82218  0.51266  1
 O  O6  1  0.37677  0.10881  0.30119  1
 O  O7  1  0.62323  0.89119  0.69881  1
 O  O8  1  0.38247  0.20271  0.04418  1
 O  O9  1  0.29306  0.46285  0.80933  1
 O  O10  1  0.61753  0.79729  0.95582  1
 O  O11  1  0.33046  0.43335  0.29561  1
 O  O12  1  0.66954  0.56665  0.70439  1
 O  O13  1  0.70694  0.53715  0.19067  1
 O  O14  1  0.02973  0.81047  0.85814  1
 O  O15  1  0.26402  0.68243  0.14785  1
 O  O16  1  0.73598  0.31757  0.85215  1
 Sr  Sr1  1  0.00000  0.50000  0.50000  1
 Sr  Sr2  1  0.90320  0.90528  0.25833  1
 Sr  Sr3  1  0.09680  0.09472  0.74167  1
