CIF file written using JARVIS-Tools package.
data_SnClF
_symmetry_space_group_name_H-M  'Pnma'
_cell_length_a       4.32529
_cell_length_b       6.26625
_cell_length_c       9.87412
_cell_angle_alpha    90
_cell_angle_beta     90
_cell_angle_gamma    90

_symmetry_Int_Tables_number  62
_chemical_formula_structural  SnClF
_chemical_formula_sum  Sn4Cl4F4
_cell_volume  267.6218594964318
_cell_formula_units_Z  4
loop_
  _symmetry_equiv_pos_site_id
 _symmetry_equiv_pos_as_xyz
 1  'x, y, z'
loop_
 _atom_site_type_symbol
 _atom_site_label
 _atom_site_symmetry_multiplicity
 _atom_site_fract_x
 _atom_site_fract_y
 _atom_site_fract_z
 _atom_site_fract_occupancy
 Cl  Cl1  1  0.75000  0.59293  0.85371  1
 Cl  Cl2  1  0.25000  0.40707  0.14629  1
 Cl  Cl3  1  0.75000  0.09293  0.64629  1
 Cl  Cl4  1  0.25000  0.90707  0.35371  1
 F  F1  1  0.75000  0.61047  0.51311  1
 F  F2  1  0.25000  0.38953  0.48689  1
 F  F3  1  0.75000  0.11047  0.98689  1
 F  F4  1  0.25000  0.88953  0.01311  1
 Sn  Sn1  1  0.75000  0.78240  0.08908  1
 Sn  Sn2  1  0.25000  0.21760  0.91092  1
 Sn  Sn3  1  0.75000  0.28240  0.41092  1
 Sn  Sn4  1  0.25000  0.71760  0.58908  1
