CIF file written using JARVIS-Tools package.
data_Ti3PO7
_symmetry_space_group_name_H-M  'R3m'
_cell_length_a       5.22143
_cell_length_b       5.22143
_cell_length_c       5.22143
_cell_angle_alpha    101.17
_cell_angle_beta     101.17
_cell_angle_gamma    101.17

_symmetry_Int_Tables_number  160
_chemical_formula_structural  Ti3PO7
_chemical_formula_sum  Ti3PO7
_cell_volume  132.99780469416163
_cell_formula_units_Z  1
loop_
  _symmetry_equiv_pos_site_id
 _symmetry_equiv_pos_as_xyz
 1  'x, y, z'
loop_
 _atom_site_type_symbol
 _atom_site_label
 _atom_site_symmetry_multiplicity
 _atom_site_fract_x
 _atom_site_fract_y
 _atom_site_fract_z
 _atom_site_fract_occupancy
 O  O1  1  0.14180  0.82629  0.82626  1
 O  O2  1  0.39309  0.79362  0.39307  1
 O  O3  1  0.21923  0.21923  0.21923  1
 O  O4  1  0.82629  0.82626  0.14180  1
 O  O5  1  0.39307  0.39309  0.79362  1
 O  O6  1  0.79362  0.39307  0.39309  1
 O  O7  1  0.82626  0.14180  0.82629  1
 P  P1  1  0.99128  0.99128  0.99128  1
 Ti  Ti1  1  0.18068  0.53512  0.53511  1
 Ti  Ti2  1  0.53512  0.53511  0.18068  1
 Ti  Ti3  1  0.53511  0.18068  0.53512  1
