CIF file written using JARVIS-Tools package.
data_K3CrO4
_symmetry_space_group_name_H-M  'I-42m'
_cell_length_a       6.51026
_cell_length_b       6.51026
_cell_length_c       6.95023
_cell_angle_alpha    90
_cell_angle_beta     90
_cell_angle_gamma    90

_symmetry_Int_Tables_number  121
_chemical_formula_structural  K3CrO4
_chemical_formula_sum  K6Cr2O8
_cell_volume  294.5746406075921
_cell_formula_units_Z  2
loop_
  _symmetry_equiv_pos_site_id
 _symmetry_equiv_pos_as_xyz
 1  'x, y, z'
loop_
 _atom_site_type_symbol
 _atom_site_label
 _atom_site_symmetry_multiplicity
 _atom_site_fract_x
 _atom_site_fract_y
 _atom_site_fract_z
 _atom_site_fract_occupancy
 Cr  Cr1  1  0.00000  0.00000  0.00000  1
 Cr  Cr2  1  0.50000  0.50000  0.50000  1
 K  K1  1  0.00000  0.50000  0.75000  1
 K  K2  1  0.50000  0.00000  0.75000  1
 K  K3  1  0.50000  0.50000  0.00000  1
 K  K4  1  0.50000  0.00000  0.25000  1
 K  K5  1  0.00000  0.50000  0.25000  1
 K  K6  1  0.00000  0.00000  0.50000  1
 O  O1  1  0.15473  0.84527  0.13928  1
 O  O2  1  0.84527  0.84527  0.86072  1
 O  O3  1  0.15473  0.15473  0.86072  1
 O  O4  1  0.84527  0.15473  0.13928  1
 O  O5  1  0.65473  0.34527  0.63928  1
 O  O6  1  0.34527  0.34527  0.36072  1
 O  O7  1  0.65473  0.65473  0.36072  1
 O  O8  1  0.34527  0.65473  0.63928  1
