CIF file written using JARVIS-Tools package.
data_H6CIN
_symmetry_space_group_name_H-M  'P2_1/m'
_cell_length_a       5.0165
_cell_length_b       5.11628
_cell_length_c       8.87702
_cell_angle_alpha    90
_cell_angle_beta     93.8208
_cell_angle_gamma    90

_symmetry_Int_Tables_number  11
_chemical_formula_structural  H6CIN
_chemical_formula_sum  H2C2I2N2
_cell_volume  227.329618435776
_cell_formula_units_Z  2
loop_
  _symmetry_equiv_pos_site_id
 _symmetry_equiv_pos_as_xyz
 1  'x, y, z'
loop_
 _atom_site_type_symbol
 _atom_site_label
 _atom_site_symmetry_multiplicity
 _atom_site_fract_x
 _atom_site_fract_y
 _atom_site_fract_z
 _atom_site_fract_occupancy
 C  C1  1  0.28891  0.75000  0.37802  1
 C  C2  1  0.71109  0.25000  0.62198  1
 H  H1  1  0.89610  0.25000  0.84225  1
 H  H2  1  0.81624  0.07443  0.58742  1
 H  H3  1  0.60326  0.41424  0.82529  1
 H  H4  1  0.60326  0.08576  0.82529  1
 H  H5  1  0.50478  0.25000  0.57299  1
 H  H6  1  0.81624  0.42557  0.58742  1
 H  H7  1  0.10390  0.75000  0.15775  1
 H  H8  1  0.39674  0.58576  0.17471  1
 H  H9  1  0.18376  0.57443  0.41258  1
 H  H10  1  0.49522  0.75000  0.42701  1
 H  H11  1  0.18376  0.92557  0.41258  1
 H  H12  1  0.39674  0.91424  0.17471  1
 I  I1  1  0.77579  0.25000  0.19106  1
 I  I2  1  0.22421  0.75000  0.80894  1
 N  N1  1  0.70595  0.25000  0.78929  1
 N  N2  1  0.29405  0.75000  0.21071  1
