CIF file written using JARVIS-Tools package.
data_Na2MnO4
_symmetry_space_group_name_H-M  'P6_3mc'
_cell_length_a       5.77678
_cell_length_b       5.77678
_cell_length_c       6.66851
_cell_angle_alpha    90
_cell_angle_beta     90
_cell_angle_gamma    120

_symmetry_Int_Tables_number  186
_chemical_formula_structural  Na2MnO4
_chemical_formula_sum  Na4Mn2O8
_cell_volume  192.72184184864543
_cell_formula_units_Z  2
loop_
  _symmetry_equiv_pos_site_id
 _symmetry_equiv_pos_as_xyz
 1  'x, y, z'
loop_
 _atom_site_type_symbol
 _atom_site_label
 _atom_site_symmetry_multiplicity
 _atom_site_fract_x
 _atom_site_fract_y
 _atom_site_fract_z
 _atom_site_fract_occupancy
 Mn  Mn1  1  0.66667  0.33333  0.83036  1
 Mn  Mn2  1  0.33333  0.66667  0.33036  1
 Na  Na1  1  0.66667  0.33333  0.39878  1
 Na  Na2  1  0.33333  0.66667  0.89878  1
 Na  Na3  1  0.00000  0.00000  0.50526  1
 Na  Na4  1  0.00000  0.00000  0.00526  1
 O  O1  1  0.82297  0.17703  0.74388  1
 O  O2  1  0.17703  0.35407  0.24388  1
 O  O3  1  0.64593  0.82297  0.24388  1
 O  O4  1  0.35407  0.17703  0.74388  1
 O  O5  1  0.82297  0.64593  0.74388  1
 O  O6  1  0.17703  0.82297  0.24388  1
 O  O7  1  0.33333  0.66667  0.57394  1
 O  O8  1  0.66667  0.33333  0.07394  1
