CIF file written using JARVIS-Tools package.
data_MnGeN2
_symmetry_space_group_name_H-M  'Pna2_1'
_cell_length_a       5.31291
_cell_length_b       5.55496
_cell_length_c       6.68123
_cell_angle_alpha    90
_cell_angle_beta     90
_cell_angle_gamma    90

_symmetry_Int_Tables_number  33
_chemical_formula_structural  MnGeN2
_chemical_formula_sum  Mn4Ge4N8
_cell_volume  197.1829675056925
_cell_formula_units_Z  4
loop_
  _symmetry_equiv_pos_site_id
 _symmetry_equiv_pos_as_xyz
 1  'x, y, z'
loop_
 _atom_site_type_symbol
 _atom_site_label
 _atom_site_symmetry_multiplicity
 _atom_site_fract_x
 _atom_site_fract_y
 _atom_site_fract_z
 _atom_site_fract_occupancy
 Ge  Ge1  1  0.00082  0.07243  0.12548  1
 Ge  Ge2  1  0.50082  0.92757  0.87452  1
 Ge  Ge3  1  0.50082  0.42757  0.62548  1
 Ge  Ge4  1  0.00082  0.57243  0.37452  1
 Mn  Mn1  1  0.99843  0.58124  0.87576  1
 Mn  Mn2  1  0.49843  0.91876  0.37576  1
 Mn  Mn3  1  0.49843  0.41876  0.12424  1
 Mn  Mn4  1  0.99843  0.08124  0.62424  1
 N  N1  1  0.39722  0.60190  0.85559  1
 N  N2  1  0.89722  0.39810  0.14441  1
 N  N3  1  0.89722  0.89810  0.35559  1
 N  N4  1  0.39722  0.10190  0.64441  1
 N  N5  1  0.35653  0.56176  0.39344  1
 N  N6  1  0.35653  0.06176  0.10656  1
 N  N7  1  0.85653  0.93824  0.89344  1
 N  N8  1  0.85653  0.43824  0.60656  1
