CIF file written using JARVIS-Tools package.
data_Cu2H3ClO3
_symmetry_space_group_name_H-M  'R-3m'
_cell_length_a       6.12022
_cell_length_b       6.12022
_cell_length_c       6.12021
_cell_angle_alpha    69.309
_cell_angle_beta     69.309
_cell_angle_gamma    69.309

_symmetry_Int_Tables_number  166
_chemical_formula_structural  Cu2H3ClO3
_chemical_formula_sum  Cu4H6Cl2O6
_cell_volume  193.6678743155835
_cell_formula_units_Z  2
loop_
  _symmetry_equiv_pos_site_id
 _symmetry_equiv_pos_as_xyz
 1  'x, y, z'
loop_
 _atom_site_type_symbol
 _atom_site_label
 _atom_site_symmetry_multiplicity
 _atom_site_fract_x
 _atom_site_fract_y
 _atom_site_fract_z
 _atom_site_fract_occupancy
 Cl  Cl1  1  0.17922  0.17922  0.17922  1
 Cl  Cl2  1  0.82078  0.82078  0.82078  1
 Cu  Cu1  1  0.50000  0.50000  0.50000  1
 Cu  Cu2  1  0.50000  0.50000  0.00000  1
 Cu  Cu3  1  0.50000  0.00000  0.50000  1
 Cu  Cu4  1  0.00000  0.50000  0.50000  1
 H  H1  1  0.17885  0.77873  0.77873  1
 H  H2  1  0.77873  0.77873  0.17885  1
 H  H3  1  0.22127  0.82115  0.22127  1
 H  H4  1  0.22127  0.22127  0.82115  1
 H  H5  1  0.82115  0.22127  0.22127  1
 H  H6  1  0.77873  0.17885  0.77873  1
 O  O1  1  0.64014  0.26721  0.26721  1
 O  O2  1  0.26721  0.26721  0.64014  1
 O  O3  1  0.35986  0.73279  0.73279  1
 O  O4  1  0.73279  0.73279  0.35986  1
 O  O5  1  0.73279  0.35986  0.73279  1
 O  O6  1  0.26721  0.64014  0.26721  1
