CIF file written using JARVIS-Tools package.
data_LiAg2F4
_symmetry_space_group_name_H-M  'Cmce'
_cell_length_a       5.49119
_cell_length_b       5.49119
_cell_length_c       6.75083
_cell_angle_alpha    90
_cell_angle_beta     90
_cell_angle_gamma    104.204

_symmetry_Int_Tables_number  64
_chemical_formula_structural  LiAg2F4
_chemical_formula_sum  Li2Ag4F8
_cell_volume  197.33607315177466
_cell_formula_units_Z  2
loop_
  _symmetry_equiv_pos_site_id
 _symmetry_equiv_pos_as_xyz
 1  'x, y, z'
loop_
 _atom_site_type_symbol
 _atom_site_label
 _atom_site_symmetry_multiplicity
 _atom_site_fract_x
 _atom_site_fract_y
 _atom_site_fract_z
 _atom_site_fract_occupancy
 Ag  Ag1  1  0.00191  0.50191  0.25000  1
 Ag  Ag2  1  0.49809  0.99809  0.75000  1
 Ag  Ag3  1  0.50191  0.00191  0.25000  1
 Ag  Ag4  1  0.99809  0.49809  0.75000  1
 F  F1  1  0.21400  0.78600  0.00000  1
 F  F2  1  0.28600  0.71400  0.50000  1
 F  F3  1  0.24120  0.24120  0.76816  1
 F  F4  1  0.25880  0.25880  0.26816  1
 F  F5  1  0.74120  0.74120  0.73184  1
 F  F6  1  0.75880  0.75880  0.23184  1
 F  F7  1  0.71400  0.28600  0.50000  1
 F  F8  1  0.78600  0.21400  0.00000  1
 Li  Li1  1  0.00000  0.00000  0.00000  1
 Li  Li2  1  0.50000  0.50000  0.50000  1
