CIF file written using JARVIS-Tools package.
data_KLi6BiO6
_symmetry_space_group_name_H-M  'R-3m'
_cell_length_a       5.47238
_cell_length_b       5.47238
_cell_length_c       5.47238
_cell_angle_alpha    101.523
_cell_angle_beta     101.523
_cell_angle_gamma    101.523

_symmetry_Int_Tables_number  166
_chemical_formula_structural  KLi6BiO6
_chemical_formula_sum  KLi6BiO6
_cell_volume  152.36086095758452
_cell_formula_units_Z  1
loop_
  _symmetry_equiv_pos_site_id
 _symmetry_equiv_pos_as_xyz
 1  'x, y, z'
loop_
 _atom_site_type_symbol
 _atom_site_label
 _atom_site_symmetry_multiplicity
 _atom_site_fract_x
 _atom_site_fract_y
 _atom_site_fract_z
 _atom_site_fract_occupancy
 Bi  Bi1  1  0.00000  0.00000  0.00000  1
 K  K1  1  0.50000  0.50000  0.50000  1
 Li  Li1  1  0.34497  -0.00000  0.65503  1
 Li  Li2  1  0.00000  0.65503  0.34497  1
 Li  Li3  1  0.34497  0.65503  -0.00000  1
 Li  Li4  1  -0.00000  0.34497  0.65503  1
 Li  Li5  1  0.65503  0.00000  0.34497  1
 Li  Li6  1  0.65503  0.34497  0.00000  1
 O  O1  1  0.90461  0.28185  0.28185  1
 O  O2  1  0.28185  0.90461  0.28185  1
 O  O3  1  0.71815  0.71815  0.09539  1
 O  O4  1  0.09539  0.71815  0.71815  1
 O  O5  1  0.71815  0.09539  0.71815  1
 O  O6  1  0.28185  0.28185  0.90461  1
