CIF file written using JARVIS-Tools package.
data_NaSrP3O9
_symmetry_space_group_name_H-M  'P-1'
_cell_length_a       6.87466
_cell_length_b       7.16603
_cell_length_c       7.72382
_cell_angle_alpha    83.9122
_cell_angle_beta     80.1058
_cell_angle_gamma    82.7082

_symmetry_Int_Tables_number  2
_chemical_formula_structural  NaSrP3O9
_chemical_formula_sum  Na2Sr2P6O8
_cell_volume  370.4321374185594
_cell_formula_units_Z  2
loop_
  _symmetry_equiv_pos_site_id
 _symmetry_equiv_pos_as_xyz
 1  'x, y, z'
loop_
 _atom_site_type_symbol
 _atom_site_label
 _atom_site_symmetry_multiplicity
 _atom_site_fract_x
 _atom_site_fract_y
 _atom_site_fract_z
 _atom_site_fract_occupancy
 Na  Na1  1  0.46008  0.37171  0.34906  1
 Na  Na2  1  0.53992  0.62829  0.65094  1
 O  O1  1  0.08377  0.05327  0.66209  1
 O  O2  1  0.91623  0.94673  0.33791  1
 O  O3  1  0.36698  0.14595  0.80483  1
 O  O4  1  0.66218  0.91496  0.70087  1
 O  O5  1  0.17733  0.38361  0.60337  1
 O  O6  1  0.82267  0.61639  0.39663  1
 O  O7  1  0.02870  0.25503  0.91912  1
 O  O8  1  0.63302  0.85405  0.19517  1
 O  O9  1  0.74097  0.34728  0.14391  1
 O  O10  1  0.76887  0.51042  0.82535  1
 O  O11  1  0.23113  0.48958  0.17465  1
 O  O12  1  0.68682  0.16873  0.89669  1
 O  O13  1  0.31318  0.83127  0.10331  1
 O  O14  1  0.64585  0.26693  0.57555  1
 O  O15  1  0.35415  0.73307  0.42445  1
 O  O16  1  0.25903  0.65272  0.85609  1
 O  O17  1  0.97130  0.74497  0.08088  1
 O  O18  1  0.33782  0.08504  0.29913  1
 P  P1  1  0.79387  0.33738  0.94921  1
 P  P2  1  0.83599  0.79036  0.26737  1
 P  P3  1  0.16401  0.20964  0.73263  1
 P  P4  1  0.60222  0.11889  0.72639  1
 P  P5  1  0.20613  0.66262  0.05079  1
 P  P6  1  0.39778  0.88111  0.27361  1
 Sr  Sr1  1  0.98837  0.27021  0.35758  1
 Sr  Sr2  1  0.01163  0.72979  0.64242  1
