CIF file written using JARVIS-Tools package.
data_ZnI2
_symmetry_space_group_name_H-M  'R-3m'
_cell_length_a       7.19746
_cell_length_b       7.19746
_cell_length_c       7.19746
_cell_angle_alpha    32.9223
_cell_angle_beta     32.9223
_cell_angle_gamma    32.9223

_symmetry_Int_Tables_number  166
_chemical_formula_structural  ZnI2
_chemical_formula_sum  ZnI2
_cell_volume  98.00146454109287
_cell_formula_units_Z  1
loop_
  _symmetry_equiv_pos_site_id
 _symmetry_equiv_pos_as_xyz
 1  'x, y, z'
loop_
 _atom_site_type_symbol
 _atom_site_label
 _atom_site_symmetry_multiplicity
 _atom_site_fract_x
 _atom_site_fract_y
 _atom_site_fract_z
 _atom_site_fract_occupancy
 I  I1  1  0.74693  0.74693  0.74693  1
 I  I2  1  0.25307  0.25307  0.25307  1
 Zn  Zn1  1  0.00000  0.00000  0.00000  1
