CIF file written using JARVIS-Tools package.
data_Li2CrO3
_symmetry_space_group_name_H-M  'Cmc2_1'
_cell_length_a       5.52068
_cell_length_b       5.47101
_cell_length_c       4.91265
_cell_angle_alpha    90
_cell_angle_beta     90
_cell_angle_gamma    59.6992

_symmetry_Int_Tables_number  36
_chemical_formula_structural  Li2CrO3
_chemical_formula_sum  Li4Cr2O6
_cell_volume  128.1098142039604
_cell_formula_units_Z  2
loop_
  _symmetry_equiv_pos_site_id
 _symmetry_equiv_pos_as_xyz
 1  'x, y, z'
loop_
 _atom_site_type_symbol
 _atom_site_label
 _atom_site_symmetry_multiplicity
 _atom_site_fract_x
 _atom_site_fract_y
 _atom_site_fract_z
 _atom_site_fract_occupancy
 Cr  Cr1  1  0.82221  0.00000  0.01913  1
 Cr  Cr2  1  0.17779  0.00000  0.51913  1
 Li  Li1  1  0.83546  0.65899  0.52169  1
 Li  Li2  1  0.50554  0.65899  0.02169  1
 Li  Li3  1  0.49446  0.34101  0.52169  1
 Li  Li4  1  0.16454  0.34101  0.02169  1
 O  O1  1  0.82810  0.69264  0.92061  1
 O  O2  1  0.47926  0.69264  0.42061  1
 O  O3  1  0.52074  0.30736  0.92061  1
 O  O4  1  0.17190  0.30736  0.42061  1
 O  O5  1  0.86277  0.00000  0.39328  1
 O  O6  1  0.13723  0.00000  0.89328  1
