CIF file written using JARVIS-Tools package.
data_MgTi4S8
_symmetry_space_group_name_H-M  'R-3m'
_cell_length_a       6.98447
_cell_length_b       7.0354
_cell_length_c       7.0354
_cell_angle_alpha    60
_cell_angle_beta     59.7585
_cell_angle_gamma    59.7585

_symmetry_Int_Tables_number  166
_chemical_formula_structural  MgTi4S8
_chemical_formula_sum  MgTi4S8
_cell_volume  243.55748025814265
_cell_formula_units_Z  1
loop_
  _symmetry_equiv_pos_site_id
 _symmetry_equiv_pos_as_xyz
 1  'x, y, z'
loop_
 _atom_site_type_symbol
 _atom_site_label
 _atom_site_symmetry_multiplicity
 _atom_site_fract_x
 _atom_site_fract_y
 _atom_site_fract_z
 _atom_site_fract_occupancy
 Mg  Mg1  1  0.50000  0.00000  -0.00000  1
 S  S1  1  0.24873  0.25389  0.25389  1
 S  S2  1  0.24873  0.25389  0.74349  1
 S  S3  1  0.24873  0.74349  0.25389  1
 S  S4  1  0.73983  0.25339  0.25339  1
 S  S5  1  0.26017  0.74661  0.74661  1
 S  S6  1  0.75127  0.74611  0.25651  1
 S  S7  1  0.75127  0.25651  0.74611  1
 S  S8  1  0.75127  0.74611  0.74611  1
 Ti  Ti1  1  -0.00000  0.50000  0.50000  1
 Ti  Ti2  1  0.50000  0.50000  0.00000  1
 Ti  Ti3  1  0.50000  0.50000  0.50000  1
 Ti  Ti4  1  0.50000  -0.00000  0.50000  1
