CIF file written using JARVIS-Tools package.
data_NbAs
_symmetry_space_group_name_H-M  'I4_1md'
_cell_length_a       3.48922
_cell_length_b       3.48922
_cell_length_c       6.40364
_cell_angle_alpha    105.81
_cell_angle_beta     105.81
_cell_angle_gamma    89.9999

_symmetry_Int_Tables_number  109
_chemical_formula_structural  NbAs
_chemical_formula_sum  Nb2As2
_cell_volume  71.94329358596333
_cell_formula_units_Z  2
loop_
  _symmetry_equiv_pos_site_id
 _symmetry_equiv_pos_as_xyz
 1  'x, y, z'
loop_
 _atom_site_type_symbol
 _atom_site_label
 _atom_site_symmetry_multiplicity
 _atom_site_fract_x
 _atom_site_fract_y
 _atom_site_fract_z
 _atom_site_fract_occupancy
 As  As1  1  0.16756  0.66756  0.33512  1
 As  As2  1  0.41756  0.41756  0.83512  1
 Nb  Nb1  1  0.74944  0.24944  0.49888  1
 Nb  Nb2  1  0.99944  0.99944  0.99888  1
