CIF file written using JARVIS-Tools package.
data_Li2VO3
_symmetry_space_group_name_H-M  'P-1'
_cell_length_a       4.97074
_cell_length_b       4.97772
_cell_length_c       5.05324
_cell_angle_alpha    99.3483
_cell_angle_beta     99.8608
_cell_angle_gamma    119.914

_symmetry_Int_Tables_number  2
_chemical_formula_structural  Li2VO3
_chemical_formula_sum  Li4V2O6
_cell_volume  102.17817069326138
_cell_formula_units_Z  2
loop_
  _symmetry_equiv_pos_site_id
 _symmetry_equiv_pos_as_xyz
 1  'x, y, z'
loop_
 _atom_site_type_symbol
 _atom_site_label
 _atom_site_symmetry_multiplicity
 _atom_site_fract_x
 _atom_site_fract_y
 _atom_site_fract_z
 _atom_site_fract_occupancy
 Li  Li1  1  0.50066  0.00047  0.99953  1
 Li  Li2  1  0.00059  0.50042  0.49949  1
 Li  Li3  1  0.15886  0.33952  0.99649  1
 Li  Li4  1  0.84241  0.66140  0.00246  1
 O  O1  1  0.72443  0.22660  0.73120  1
 O  O2  1  0.27675  0.77423  0.26778  1
 O  O3  1  0.43054  0.57985  0.73142  1
 O  O4  1  0.92615  0.07248  0.27399  1
 O  O5  1  0.57065  0.42098  0.26757  1
 O  O6  1  0.07503  0.92835  0.72500  1
 V  V1  1  0.33756  0.17304  0.49908  1
 V  V2  1  0.66362  0.82779  0.49991  1
