CIF file written using JARVIS-Tools package.
data_LiVCoO4
_symmetry_space_group_name_H-M  'P4_322'
_cell_length_a       5.86681
_cell_length_b       5.86681
_cell_length_c       8.1321
_cell_angle_alpha    90
_cell_angle_beta     90
_cell_angle_gamma    90

_symmetry_Int_Tables_number  95
_chemical_formula_structural  LiVCoO4
_chemical_formula_sum  Li4V4Co4O6
_cell_volume  279.9027712413732
_cell_formula_units_Z  4
loop_
  _symmetry_equiv_pos_site_id
 _symmetry_equiv_pos_as_xyz
 1  'x, y, z'
loop_
 _atom_site_type_symbol
 _atom_site_label
 _atom_site_symmetry_multiplicity
 _atom_site_fract_x
 _atom_site_fract_y
 _atom_site_fract_z
 _atom_site_fract_occupancy
 Co  Co1  1  0.74397  0.74397  0.12500  1
 Co  Co2  1  0.25603  0.25603  0.62500  1
 Co  Co3  1  0.25603  0.74397  0.87500  1
 Co  Co4  1  0.74397  0.25603  0.37500  1
 Li  Li1  1  -0.00000  0.24130  0.00000  1
 Li  Li2  1  0.75870  -0.00000  0.75000  1
 Li  Li3  1  0.24130  0.00000  0.25000  1
 Li  Li4  1  0.00000  0.75870  0.50000  1
 O  O1  1  0.97744  0.26947  0.74324  1
 O  O2  1  0.26947  0.02256  0.99324  1
 O  O3  1  0.26947  0.97744  0.50676  1
 O  O4  1  0.48880  0.73352  0.26870  1
 O  O5  1  0.26648  0.48880  0.01870  1
 O  O6  1  0.26648  0.51121  0.48130  1
 O  O7  1  0.02256  0.73053  0.24324  1
 O  O8  1  0.02256  0.26947  0.25676  1
 O  O9  1  0.51120  0.26648  0.76870  1
 O  O10  1  0.73053  0.02256  0.00676  1
 O  O11  1  0.73352  0.51120  0.51870  1
 O  O12  1  0.73352  0.48879  0.98130  1
 O  O13  1  0.48879  0.26648  0.23130  1
 O  O14  1  0.73053  0.97744  0.49324  1
 O  O15  1  0.51121  0.73352  0.73130  1
 O  O16  1  0.97744  0.73053  0.75676  1
 V  V1  1  0.77948  0.50000  0.75000  1
 V  V2  1  0.50000  0.77948  0.50000  1
 V  V3  1  0.50000  0.22052  -0.00000  1
 V  V4  1  0.22052  0.50000  0.25000  1
