CIF file written using JARVIS-Tools package.
data_Sr5Al9
_symmetry_space_group_name_H-M  'R-3m'
_cell_length_a       12.3728
_cell_length_b       12.3728
_cell_length_c       12.3728
_cell_angle_alpha    27.4581
_cell_angle_beta     27.4581
_cell_angle_gamma    27.4582

_symmetry_Int_Tables_number  166
_chemical_formula_structural  Sr5Al9
_chemical_formula_sum  Sr5Al9
_cell_volume  355.43163805532674
_cell_formula_units_Z  1
loop_
  _symmetry_equiv_pos_site_id
 _symmetry_equiv_pos_as_xyz
 1  'x, y, z'
loop_
 _atom_site_type_symbol
 _atom_site_label
 _atom_site_symmetry_multiplicity
 _atom_site_fract_x
 _atom_site_fract_y
 _atom_site_fract_z
 _atom_site_fract_occupancy
 Al  Al1  1  0.00000  0.00000  0.00000  1
 Al  Al2  1  0.12467  0.12467  0.12467  1
 Al  Al3  1  0.87533  0.87533  0.87533  1
 Al  Al4  1  0.23738  0.72325  0.23738  1
 Al  Al5  1  0.23738  0.23738  0.72325  1
 Al  Al6  1  0.72325  0.23738  0.23738  1
 Al  Al7  1  0.27675  0.76262  0.76262  1
 Al  Al8  1  0.76262  0.27675  0.76262  1
 Al  Al9  1  0.76262  0.76262  0.27675  1
 Sr  Sr1  1  0.50000  0.50000  0.50000  1
 Sr  Sr2  1  0.21663  0.21663  0.21663  1
 Sr  Sr3  1  0.78337  0.78337  0.78337  1
 Sr  Sr4  1  0.31663  0.31663  0.31663  1
 Sr  Sr5  1  0.68337  0.68337  0.68337  1
