CIF file written using JARVIS-Tools package.
data_TbMnSi
_symmetry_space_group_name_H-M  'P4/nmm'
_cell_length_a       3.95662
_cell_length_b       3.95662
_cell_length_c       7.02673
_cell_angle_alpha    90
_cell_angle_beta     90
_cell_angle_gamma    90

_symmetry_Int_Tables_number  129
_chemical_formula_structural  TbMnSi
_chemical_formula_sum  Tb2Mn2Si2
_cell_volume  110.00253921639765
_cell_formula_units_Z  2
loop_
  _symmetry_equiv_pos_site_id
 _symmetry_equiv_pos_as_xyz
 1  'x, y, z'
loop_
 _atom_site_type_symbol
 _atom_site_label
 _atom_site_symmetry_multiplicity
 _atom_site_fract_x
 _atom_site_fract_y
 _atom_site_fract_z
 _atom_site_fract_occupancy
 Mn  Mn1  1  0.00000  0.00000  0.00000  1
 Mn  Mn2  1  0.50000  0.50000  0.00000  1
 Si  Si1  1  0.50000  0.00000  0.79821  1
 Si  Si2  1  0.00000  0.50000  0.20179  1
 Tb  Tb1  1  0.00000  0.50000  0.66932  1
 Tb  Tb2  1  0.50000  0.00000  0.33068  1
