CIF file written using JARVIS-Tools package.
data_IO3
_symmetry_space_group_name_H-M  'P-1'
_cell_length_a       5.03464
_cell_length_b       6.8279
_cell_length_c       6.88147
_cell_angle_alpha    98.1391
_cell_angle_beta     96.3236
_cell_angle_gamma    105.298

_symmetry_Int_Tables_number  2
_chemical_formula_structural  IO3
_chemical_formula_sum  I4O2
_cell_volume  223.16585476124234
_cell_formula_units_Z  4
loop_
  _symmetry_equiv_pos_site_id
 _symmetry_equiv_pos_as_xyz
 1  'x, y, z'
loop_
 _atom_site_type_symbol
 _atom_site_label
 _atom_site_symmetry_multiplicity
 _atom_site_fract_x
 _atom_site_fract_y
 _atom_site_fract_z
 _atom_site_fract_occupancy
 I  I1  1  0.00341  0.17214  0.67288  1
 I  I2  1  0.99659  0.82786  0.32712  1
 I  I3  1  0.79718  0.65896  0.77672  1
 I  I4  1  0.20282  0.34104  0.22328  1
 O  O1  1  0.22526  0.98290  0.58515  1
 O  O2  1  0.77474  0.01710  0.41485  1
 O  O3  1  0.79273  0.95696  0.80141  1
 O  O4  1  0.20727  0.04304  0.19859  1
 O  O5  1  0.84253  0.29886  0.15045  1
 O  O6  1  0.15747  0.70114  0.84955  1
 O  O7  1  0.78483  0.63074  0.47712  1
 O  O8  1  0.21517  0.36926  0.52288  1
 O  O9  1  0.26710  0.29575  0.89505  1
 O  O10  1  0.73290  0.70425  0.10495  1
 O  O11  1  0.25795  0.68660  0.29597  1
 O  O12  1  0.74205  0.31340  0.70403  1
