CIF file written using JARVIS-Tools package.
data_VSb2O5
_symmetry_space_group_name_H-M  'C2/c'
_cell_length_a       4.84587
_cell_length_b       5.50479
_cell_length_c       9.24629
_cell_angle_alpha    93.6869
_cell_angle_beta     105.191
_cell_angle_gamma    90

_symmetry_Int_Tables_number  15
_chemical_formula_structural  VSb2O5
_chemical_formula_sum  V2Sb4O0
_cell_volume  237.50186132715245
_cell_formula_units_Z  2
loop_
  _symmetry_equiv_pos_site_id
 _symmetry_equiv_pos_as_xyz
 1  'x, y, z'
loop_
 _atom_site_type_symbol
 _atom_site_label
 _atom_site_symmetry_multiplicity
 _atom_site_fract_x
 _atom_site_fract_y
 _atom_site_fract_z
 _atom_site_fract_occupancy
 O  O1  1  0.39298  0.15354  0.58508  1
 O  O2  1  0.80790  0.34646  0.41492  1
 O  O3  1  0.60702  0.84646  0.41492  1
 O  O4  1  0.19210  0.65354  0.58508  1
 O  O5  1  0.43447  0.48455  0.85694  1
 O  O6  1  0.57753  0.01545  0.14306  1
 O  O7  1  0.02841  0.75000  -0.00000  1
 O  O8  1  0.97159  0.25000  0.00000  1
 O  O9  1  0.42247  0.98455  0.85694  1
 O  O10  1  0.56553  0.51545  0.14306  1
 Sb  Sb1  1  0.11287  0.34103  0.67702  1
 Sb  Sb2  1  0.43585  0.15897  0.32298  1
 Sb  Sb3  1  0.88713  0.65897  0.32298  1
 Sb  Sb4  1  0.56415  0.84103  0.67702  1
 V  V1  1  0.63529  0.25000  0.00000  1
 V  V2  1  0.36471  0.75000  -0.00000  1
