CIF file written using JARVIS-Tools package.
data_CuTe
_symmetry_space_group_name_H-M  'Pmmn'
_cell_length_a       3.24604
_cell_length_b       4.03363
_cell_length_c       7.08524
_cell_angle_alpha    90
_cell_angle_beta     90
_cell_angle_gamma    90

_symmetry_Int_Tables_number  59
_chemical_formula_structural  CuTe
_chemical_formula_sum  Cu2Te2
_cell_volume  92.76938723240845
_cell_formula_units_Z  2
loop_
  _symmetry_equiv_pos_site_id
 _symmetry_equiv_pos_as_xyz
 1  'x, y, z'
loop_
 _atom_site_type_symbol
 _atom_site_label
 _atom_site_symmetry_multiplicity
 _atom_site_fract_x
 _atom_site_fract_y
 _atom_site_fract_z
 _atom_site_fract_occupancy
 Cu  Cu1  1  0.00000  0.50000  0.45985  1
 Cu  Cu2  1  0.50000  0.00000  0.54015  1
 Te  Te1  1  0.00000  0.00000  0.22436  1
 Te  Te2  1  0.50000  0.50000  0.77564  1
