CIF file written using JARVIS-Tools package.
data_CrSi2O6
_symmetry_space_group_name_H-M  'C2/c'
_cell_length_a       6.40887
_cell_length_b       6.40888
_cell_length_c       5.3281
_cell_angle_alpha    74.9989
_cell_angle_beta     105.001
_cell_angle_gamma    95.7127

_symmetry_Int_Tables_number  15
_chemical_formula_structural  CrSi2O6
_chemical_formula_sum  Cr2Si4O2
_cell_volume  204.0584487427842
_cell_formula_units_Z  2
loop_
  _symmetry_equiv_pos_site_id
 _symmetry_equiv_pos_as_xyz
 1  'x, y, z'
loop_
 _atom_site_type_symbol
 _atom_site_label
 _atom_site_symmetry_multiplicity
 _atom_site_fract_x
 _atom_site_fract_y
 _atom_site_fract_z
 _atom_site_fract_occupancy
 Cr  Cr1  1  0.09463  0.09463  0.75000  1
 Cr  Cr2  1  0.90537  0.90537  0.25000  1
 O  O1  1  0.95961  0.18568  0.36596  1
 O  O2  1  0.04039  0.81432  0.63404  1
 O  O3  1  0.18568  0.95961  0.13404  1
 O  O4  1  0.09451  0.37292  0.77826  1
 O  O5  1  0.36922  0.64941  0.54737  1
 O  O6  1  0.62708  0.90549  0.27826  1
 O  O7  1  0.37292  0.09451  0.72174  1
 O  O8  1  0.35059  0.63078  0.04737  1
 O  O9  1  0.63078  0.35059  0.45263  1
 O  O10  1  0.81432  0.04039  0.86596  1
 O  O11  1  0.90549  0.62708  0.22174  1
 O  O12  1  0.64941  0.36922  0.95263  1
 Si  Si1  1  0.38894  0.78687  0.25266  1
 Si  Si2  1  0.61106  0.21313  0.74734  1
 Si  Si3  1  0.21313  0.61106  0.75266  1
 Si  Si4  1  0.78687  0.38894  0.24734  1
