CIF file written using JARVIS-Tools package.
data_Li2VCo3O8
_symmetry_space_group_name_H-M  'P6_3mc'
_cell_length_a       5.67451
_cell_length_b       5.67451
_cell_length_c       9.09147
_cell_angle_alpha    90
_cell_angle_beta     90
_cell_angle_gamma    120

_symmetry_Int_Tables_number  186
_chemical_formula_structural  Li2VCo3O8
_chemical_formula_sum  Li4V2Co6O6
_cell_volume  253.52527631745298
_cell_formula_units_Z  2
loop_
  _symmetry_equiv_pos_site_id
 _symmetry_equiv_pos_as_xyz
 1  'x, y, z'
loop_
 _atom_site_type_symbol
 _atom_site_label
 _atom_site_symmetry_multiplicity
 _atom_site_fract_x
 _atom_site_fract_y
 _atom_site_fract_z
 _atom_site_fract_occupancy
 Co  Co1  1  0.82990  0.17010  0.71441  1
 Co  Co2  1  0.17010  0.82990  0.21441  1
 Co  Co3  1  0.17010  0.34021  0.21441  1
 Co  Co4  1  0.65979  0.82990  0.21441  1
 Co  Co5  1  0.34021  0.17010  0.71441  1
 Co  Co6  1  0.82990  0.65979  0.71441  1
 Li  Li1  1  0.33333  0.66667  0.89416  1
 Li  Li2  1  0.66667  0.33333  0.39416  1
 Li  Li3  1  0.00000  0.00000  0.49895  1
 Li  Li4  1  0.00000  0.00000  0.99895  1
 O  O1  1  0.17019  0.34038  0.59637  1
 O  O2  1  0.47887  0.52113  0.33775  1
 O  O3  1  0.33333  0.66667  0.10773  1
 O  O4  1  0.00000  0.00000  0.30849  1
 O  O5  1  0.00000  0.00000  0.80849  1
 O  O6  1  0.65962  0.82981  0.59637  1
 O  O7  1  0.52113  0.47887  0.83775  1
 O  O8  1  0.47887  0.95773  0.33775  1
 O  O9  1  0.34038  0.17019  0.09637  1
 O  O10  1  0.52113  0.04227  0.83775  1
 O  O11  1  0.95773  0.47887  0.83775  1
 O  O12  1  0.66667  0.33333  0.60773  1
 O  O13  1  0.04227  0.52113  0.33775  1
 O  O14  1  0.82981  0.17019  0.09637  1
 O  O15  1  0.17019  0.82981  0.59637  1
 O  O16  1  0.82981  0.65962  0.09637  1
 V  V1  1  0.66667  0.33333  -0.00100  1
 V  V2  1  0.33333  0.66667  0.49900  1
