CIF file written using JARVIS-Tools package.
data_Li8SnO6
_symmetry_space_group_name_H-M  'R-3'
_cell_length_a       6.01129
_cell_length_b       6.01129
_cell_length_c       6.01128
_cell_angle_alpha    54.0954
_cell_angle_beta     54.0955
_cell_angle_gamma    54.0954

_symmetry_Int_Tables_number  148
_chemical_formula_structural  Li8SnO6
_chemical_formula_sum  Li8SnO6
_cell_volume  132.42242632960662
_cell_formula_units_Z  1
loop_
  _symmetry_equiv_pos_site_id
 _symmetry_equiv_pos_as_xyz
 1  'x, y, z'
loop_
 _atom_site_type_symbol
 _atom_site_label
 _atom_site_symmetry_multiplicity
 _atom_site_fract_x
 _atom_site_fract_y
 _atom_site_fract_z
 _atom_site_fract_occupancy
 Li  Li1  1  0.49483  0.10094  0.76623  1
 Li  Li2  1  0.76623  0.49483  0.10094  1
 Li  Li3  1  0.10094  0.76623  0.49483  1
 Li  Li4  1  0.50517  0.89906  0.23377  1
 Li  Li5  1  0.23377  0.50517  0.89906  1
 Li  Li6  1  0.89906  0.23377  0.50517  1
 Li  Li7  1  0.34557  0.34557  0.34557  1
 Li  Li8  1  0.65443  0.65443  0.65443  1
 O  O1  1  0.23659  0.90560  0.61261  1
 O  O2  1  0.38739  0.76341  0.09440  1
 O  O3  1  0.09440  0.38739  0.76341  1
 O  O4  1  0.76341  0.09440  0.38739  1
 O  O5  1  0.61261  0.23659  0.90560  1
 O  O6  1  0.90560  0.61261  0.23659  1
 Sn  Sn1  1  0.00000  0.00000  0.00000  1
