data_image0
_chemical_formula_structural       Mn3P3Rh3
_chemical_formula_sum              "Mn3 P3 Rh3"
_cell_length_a       6.22245
_cell_length_b       6.22244
_cell_length_c       3.56023
_cell_angle_alpha    90
_cell_angle_beta     90
_cell_angle_gamma    120.022

_space_group_name_H-M_alt    "P 1"
_space_group_IT_number       1

loop_
  _space_group_symop_operation_xyz
  'x, y, z'

loop_
  _atom_site_type_symbol
  _atom_site_label
  _atom_site_symmetry_multiplicity
  _atom_site_fract_x
  _atom_site_fract_y
  _atom_site_fract_z
  _atom_site_occupancy
  Mn  Mn1       1.0  0.59900  0.00002  0.50000  1.0000
  Mn  Mn2       1.0  0.40100  0.40100  0.50000  1.0000
  Mn  Mn3       1.0  0.00002  0.59900  0.50000  1.0000
  P   P1        1.0  0.66700  0.33300  0.00000  1.0000
  P   P2        1.0  0.33300  0.66700  0.00000  1.0000
  P   P3        1.0  0.00006  0.00006  0.50000  1.0000
  Rh  Rh1       1.0  0.26500  0.00004  0.00000  1.0000
  Rh  Rh2       1.0  0.00004  0.26500  0.00000  1.0000
  Rh  Rh3       1.0  0.73500  0.73500  0.00000  1.0000
