CIF file written using JARVIS-Tools package.
data_RuCl3
_symmetry_space_group_name_H-M  'P3_112'
_cell_length_a       5.96651
_cell_length_b       5.96651
_cell_length_c       17.1603
_cell_angle_alpha    90
_cell_angle_beta     90
_cell_angle_gamma    120

_symmetry_Int_Tables_number  151
_chemical_formula_structural  RuCl3
_chemical_formula_sum  Ru6Cl8
_cell_volume  529.0480980396916
_cell_formula_units_Z  6
loop_
  _symmetry_equiv_pos_site_id
 _symmetry_equiv_pos_as_xyz
 1  'x, y, z'
loop_
 _atom_site_type_symbol
 _atom_site_label
 _atom_site_symmetry_multiplicity
 _atom_site_fract_x
 _atom_site_fract_y
 _atom_site_fract_z
 _atom_site_fract_occupancy
 Cl  Cl1  1  0.87068  0.10862  0.57891  1
 Cl  Cl2  1  0.54584  0.76270  0.75496  1
 Cl  Cl3  1  0.89138  0.76206  0.91224  1
 Cl  Cl4  1  0.54557  0.10822  0.91188  1
 Cl  Cl5  1  0.87068  0.76206  0.42109  1
 Cl  Cl6  1  0.21686  0.45416  0.42163  1
 Cl  Cl7  1  0.23794  0.10862  0.75443  1
 Cl  Cl8  1  0.54584  0.78314  0.24504  1
 Cl  Cl9  1  0.89138  0.12932  0.08776  1
 Cl  Cl10  1  0.23730  0.45416  0.91170  1
 Cl  Cl11  1  0.56266  0.45443  0.57855  1
 Cl  Cl12  1  0.23730  0.78314  0.08830  1
 Cl  Cl13  1  0.21686  0.76270  0.57837  1
 Cl  Cl14  1  0.23794  0.12932  0.24557  1
 Cl  Cl15  1  0.56266  0.10822  0.42145  1
 Cl  Cl16  1  0.89178  0.43734  0.24522  1
 Cl  Cl17  1  0.54557  0.43734  0.08812  1
 Cl  Cl18  1  0.89178  0.45443  0.75478  1
 Ru  Ru1  1  0.22477  0.77523  0.83333  1
 Ru  Ru2  1  0.55046  0.77523  0.50000  1
 Ru  Ru3  1  0.22477  0.44954  0.16667  1
 Ru  Ru4  1  0.55842  0.44158  0.83333  1
 Ru  Ru5  1  0.88316  0.44158  0.50000  1
 Ru  Ru6  1  0.55842  0.11684  0.16667  1
