CIF file written using JARVIS-Tools package.
data_Tl2SiS3
_symmetry_space_group_name_H-M  'P-1'
_cell_length_a       6.7104
_cell_length_b       6.73144
_cell_length_c       8.43654
_cell_angle_alpha    90.0287
_cell_angle_beta     111.923
_cell_angle_gamma    112.849

_symmetry_Int_Tables_number  2
_chemical_formula_structural  Tl2SiS3
_chemical_formula_sum  Tl4Si2S6
_cell_volume  321.0339427502911
_cell_formula_units_Z  2
loop_
  _symmetry_equiv_pos_site_id
 _symmetry_equiv_pos_as_xyz
 1  'x, y, z'
loop_
 _atom_site_type_symbol
 _atom_site_label
 _atom_site_symmetry_multiplicity
 _atom_site_fract_x
 _atom_site_fract_y
 _atom_site_fract_z
 _atom_site_fract_occupancy
 S  S1  1  0.75439  0.69660  0.90002  1
 S  S2  1  0.24561  0.30340  0.09998  1
 S  S3  1  0.51550  0.87066  0.27351  1
 S  S4  1  0.48450  0.12934  0.72649  1
 S  S5  1  0.24755  0.47765  0.49647  1
 S  S6  1  0.75245  0.52235  0.50353  1
 Si  Si1  1  0.43186  0.54750  0.32144  1
 Si  Si2  1  0.56814  0.45250  0.67856  1
 Tl  Tl1  1  0.73718  0.31221  0.11026  1
 Tl  Tl2  1  0.26282  0.68779  0.88974  1
 Tl  Tl3  1  0.88639  0.06091  0.67304  1
 Tl  Tl4  1  0.11361  0.93909  0.32696  1
