CIF file written using JARVIS-Tools package.
data_PuPd
_symmetry_space_group_name_H-M  'Fd-3m'
_cell_length_a       4.79224
_cell_length_b       4.79313
_cell_length_c       6.78021
_cell_angle_alpha    90
_cell_angle_beta     90
_cell_angle_gamma    90

_symmetry_Int_Tables_number  227
_chemical_formula_structural  PuPd
_chemical_formula_sum  Pu4Pd4
_cell_volume  155.74004797823343
_cell_formula_units_Z  4
loop_
  _symmetry_equiv_pos_site_id
 _symmetry_equiv_pos_as_xyz
 1  'x, y, z'
loop_
 _atom_site_type_symbol
 _atom_site_label
 _atom_site_symmetry_multiplicity
 _atom_site_fract_x
 _atom_site_fract_y
 _atom_site_fract_z
 _atom_site_fract_occupancy
 Pd  Pd1  1  0.75000  0.99988  0.62501  1
 Pd  Pd2  1  0.25000  0.00012  0.37499  1
 Pd  Pd3  1  0.25000  0.50012  0.12501  1
 Pd  Pd4  1  0.75000  0.49988  0.87499  1
 Pu  Pu1  1  0.75000  0.99987  0.12500  1
 Pu  Pu2  1  0.25000  0.00013  0.87500  1
 Pu  Pu3  1  0.25000  0.50013  0.62500  1
 Pu  Pu4  1  0.75000  0.49987  0.37500  1
