CIF file written using JARVIS-Tools package.
data_Li5V5Cr2O12
_symmetry_space_group_name_H-M  'C2'
_cell_length_a       5.05926
_cell_length_b       5.05927
_cell_length_c       9.75463
_cell_angle_alpha    84.7553
_cell_angle_beta     95.2447
_cell_angle_gamma    58.915

_symmetry_Int_Tables_number  5
_chemical_formula_structural  Li5V5Cr2O12
_chemical_formula_sum  Li5V5Cr2O2
_cell_volume  210.10101808344805
_cell_formula_units_Z  1
loop_
  _symmetry_equiv_pos_site_id
 _symmetry_equiv_pos_as_xyz
 1  'x, y, z'
loop_
 _atom_site_type_symbol
 _atom_site_label
 _atom_site_symmetry_multiplicity
 _atom_site_fract_x
 _atom_site_fract_y
 _atom_site_fract_z
 _atom_site_fract_occupancy
 Cr  Cr1  1  0.25106  0.25106  0.75000  1
 Cr  Cr2  1  0.75736  0.75736  0.25000  1
 Li  Li1  1  0.92218  0.92218  0.75000  1
 Li  Li2  1  0.15866  0.67114  0.51263  1
 Li  Li3  1  0.67114  0.15866  0.98737  1
 Li  Li4  1  0.32802  0.83074  0.99048  1
 Li  Li5  1  0.83074  0.32802  0.50952  1
 O  O1  1  0.61977  0.87505  0.87063  1
 O  O2  1  0.71569  0.47014  0.12907  1
 O  O3  1  0.47014  0.71569  0.37093  1
 O  O4  1  0.53116  0.29617  0.62936  1
 O  O5  1  0.29617  0.53116  0.87064  1
 O  O6  1  0.36788  0.12744  0.13236  1
 O  O7  1  0.12744  0.36788  0.36764  1
 O  O8  1  0.96382  0.21173  0.87206  1
 O  O9  1  0.79123  0.03479  0.37921  1
 O  O10  1  0.87505  0.61977  0.62937  1
 O  O11  1  0.21173  0.96382  0.62794  1
 O  O12  1  0.03479  0.79123  0.12079  1
 V  V1  1  0.07052  0.07052  0.25000  1
 V  V2  1  0.58297  0.58297  0.75000  1
 V  V3  1  0.42203  0.42203  0.25000  1
 V  V4  1  0.50246  -0.00202  0.51035  1
 V  V5  1  -0.00202  0.50246  0.98965  1
