CIF file written using JARVIS-Tools package.
data_TaMn2O3
_symmetry_space_group_name_H-M  'P6/mmm'
_cell_length_a       4.89052
_cell_length_b       4.89052
_cell_length_c       3.03239
_cell_angle_alpha    90
_cell_angle_beta     90
_cell_angle_gamma    120

_symmetry_Int_Tables_number  191
_chemical_formula_structural  TaMn2O3
_chemical_formula_sum  TaMn2O3
_cell_volume  62.80941681096982
_cell_formula_units_Z  1
loop_
  _symmetry_equiv_pos_site_id
 _symmetry_equiv_pos_as_xyz
 1  'x, y, z'
loop_
 _atom_site_type_symbol
 _atom_site_label
 _atom_site_symmetry_multiplicity
 _atom_site_fract_x
 _atom_site_fract_y
 _atom_site_fract_z
 _atom_site_fract_occupancy
 Mn  Mn1  1  0.33333  0.66667  0.50000  1
 Mn  Mn2  1  0.66667  0.33333  0.50000  1
 O  O1  1  0.50000  0.50000  0.00000  1
 O  O2  1  0.50000  -0.00000  0.00000  1
 O  O3  1  -0.00000  0.50000  0.00000  1
 Ta  Ta1  1  0.00000  0.00000  0.00000  1
