CIF file written using JARVIS-Tools package.
data_CoPH6NO5
_symmetry_space_group_name_H-M  'Pmn2_1'
_cell_length_a       4.75258
_cell_length_b       5.62098
_cell_length_c       8.83542
_cell_angle_alpha    90
_cell_angle_beta     90
_cell_angle_gamma    90

_symmetry_Int_Tables_number  31
_chemical_formula_structural  CoPH6NO5
_chemical_formula_sum  Co2P2H2N2O0
_cell_volume  236.03110649774553
_cell_formula_units_Z  2
loop_
  _symmetry_equiv_pos_site_id
 _symmetry_equiv_pos_as_xyz
 1  'x, y, z'
loop_
 _atom_site_type_symbol
 _atom_site_label
 _atom_site_symmetry_multiplicity
 _atom_site_fract_x
 _atom_site_fract_y
 _atom_site_fract_z
 _atom_site_fract_occupancy
 Co  Co1  1  0.52016  0.50000  0.02264  1
 Co  Co2  1  0.02016  0.00000  0.97736  1
 H  H1  1  0.64974  0.34751  0.40644  1
 H  H2  1  0.84283  0.50000  0.53731  1
 H  H3  1  0.47975  0.50000  0.54543  1
 H  H4  1  0.97975  0.00000  0.45457  1
 H  H5  1  0.64974  0.65249  0.40644  1
 H  H6  1  0.09433  0.35920  0.19137  1
 H  H7  1  0.34283  0.00000  0.46269  1
 H  H8  1  0.14974  0.15249  0.59356  1
 H  H9  1  0.09433  0.64080  0.19137  1
 H  H10  1  0.59433  0.85920  0.80863  1
 H  H11  1  0.59433  0.14080  0.80863  1
 H  H12  1  0.14974  0.84751  0.59356  1
 N  N1  1  0.65588  0.50000  0.47274  1
 N  N2  1  0.15588  0.00000  0.52726  1
 O  O1  1  0.21542  0.50000  0.20832  1
 O  O2  1  0.26808  0.00000  0.16941  1
 O  O3  1  0.15476  0.50000  0.63707  1
 O  O4  1  0.76808  0.50000  0.83059  1
 O  O5  1  0.23164  0.71947  0.88722  1
 O  O6  1  0.73164  0.21947  0.11278  1
 O  O7  1  0.73164  0.78053  0.11278  1
 O  O8  1  0.65476  0.00000  0.36293  1
 O  O9  1  0.23164  0.28053  0.88722  1
 O  O10  1  0.71542  0.00000  0.79168  1
 P  P1  1  0.08651  0.50000  0.80850  1
 P  P2  1  0.58651  0.00000  0.19150  1
