CIF file written using JARVIS-Tools package.
data_WS2
_symmetry_space_group_name_H-M  'R3m'
_cell_length_a       6.5174
_cell_length_b       6.5174
_cell_length_c       6.5174
_cell_angle_alpha    28.3885
_cell_angle_beta     28.3885
_cell_angle_gamma    28.3884

_symmetry_Int_Tables_number  160
_chemical_formula_structural  WS2
_chemical_formula_sum  WS2
_cell_volume  55.302537425040626
_cell_formula_units_Z  1
loop_
  _symmetry_equiv_pos_site_id
 _symmetry_equiv_pos_as_xyz
 1  'x, y, z'
loop_
 _atom_site_type_symbol
 _atom_site_label
 _atom_site_symmetry_multiplicity
 _atom_site_fract_x
 _atom_site_fract_y
 _atom_site_fract_z
 _atom_site_fract_occupancy
 S  S1  1  0.41794  0.41794  0.41794  1
 S  S2  1  0.25010  0.25010  0.25010  1
 W  W1  1  0.00066  0.00066  0.00066  1
