CIF file written using JARVIS-Tools package.
data_BiSCl
_symmetry_space_group_name_H-M  'Pnma'
_cell_length_a       4.02322
_cell_length_b       7.8485
_cell_length_c       9.93513
_cell_angle_alpha    90
_cell_angle_beta     90
_cell_angle_gamma    90

_symmetry_Int_Tables_number  62
_chemical_formula_structural  BiSCl
_chemical_formula_sum  Bi4S4Cl4
_cell_volume  313.7135520931872
_cell_formula_units_Z  4
loop_
  _symmetry_equiv_pos_site_id
 _symmetry_equiv_pos_as_xyz
 1  'x, y, z'
loop_
 _atom_site_type_symbol
 _atom_site_label
 _atom_site_symmetry_multiplicity
 _atom_site_fract_x
 _atom_site_fract_y
 _atom_site_fract_z
 _atom_site_fract_occupancy
 Bi  Bi1  1  0.25000  0.64228  0.36528  1
 Bi  Bi2  1  0.75000  0.35772  0.63472  1
 Bi  Bi3  1  0.25000  0.14228  0.13472  1
 Bi  Bi4  1  0.75000  0.85772  0.86528  1
 Cl  Cl1  1  0.25000  0.51682  0.81049  1
 Cl  Cl2  1  0.75000  0.98318  0.31049  1
 Cl  Cl3  1  0.25000  0.01682  0.68951  1
 Cl  Cl4  1  0.75000  0.48318  0.18951  1
 S  S1  1  0.75000  0.67876  0.55023  1
 S  S2  1  0.25000  0.82124  0.05023  1
 S  S3  1  0.75000  0.17876  0.94977  1
 S  S4  1  0.25000  0.32124  0.44977  1
