CIF file written using JARVIS-Tools package.
data_PbCl2
_symmetry_space_group_name_H-M  'Pnma'
_cell_length_a       4.54917
_cell_length_b       7.61769
_cell_length_c       9.13011
_cell_angle_alpha    90
_cell_angle_beta     90
_cell_angle_gamma    90

_symmetry_Int_Tables_number  62
_chemical_formula_structural  PbCl2
_chemical_formula_sum  Pb4Cl8
_cell_volume  316.3959986501641
_cell_formula_units_Z  4
loop_
  _symmetry_equiv_pos_site_id
 _symmetry_equiv_pos_as_xyz
 1  'x, y, z'
loop_
 _atom_site_type_symbol
 _atom_site_label
 _atom_site_symmetry_multiplicity
 _atom_site_fract_x
 _atom_site_fract_y
 _atom_site_fract_z
 _atom_site_fract_occupancy
 Cl  Cl1  1  0.25000  0.98081  0.33825  1
 Cl  Cl2  1  0.75000  0.01919  0.66175  1
 Cl  Cl3  1  0.25000  0.48081  0.16175  1
 Cl  Cl4  1  0.75000  0.51919  0.83825  1
 Cl  Cl5  1  0.75000  0.14205  0.07722  1
 Cl  Cl6  1  0.25000  0.85795  0.92278  1
 Cl  Cl7  1  0.75000  0.64205  0.42278  1
 Cl  Cl8  1  0.25000  0.35795  0.57722  1
 Pb  Pb1  1  0.25000  0.76243  0.59590  1
 Pb  Pb2  1  0.75000  0.23757  0.40410  1
 Pb  Pb3  1  0.25000  0.26243  0.90410  1
 Pb  Pb4  1  0.75000  0.73757  0.09590  1
