CIF file written using JARVIS-Tools package.
data_Li4Mn3FeB4O12
_symmetry_space_group_name_H-M  'P1'
_cell_length_a       5.16221
_cell_length_b       5.92398
_cell_length_c       9.04679
_cell_angle_alpha    103.818
_cell_angle_beta     89.6441
_cell_angle_gamma    114.161

_symmetry_Int_Tables_number  1
_chemical_formula_structural  Li4Mn3FeB4O12
_chemical_formula_sum  Li4Mn3FeB4O2
_cell_volume  243.80620248904066
_cell_formula_units_Z  1
loop_
  _symmetry_equiv_pos_site_id
 _symmetry_equiv_pos_as_xyz
 1  'x, y, z'
loop_
 _atom_site_type_symbol
 _atom_site_label
 _atom_site_symmetry_multiplicity
 _atom_site_fract_x
 _atom_site_fract_y
 _atom_site_fract_z
 _atom_site_fract_occupancy
 B  B1  1  0.27921  0.74185  0.53837  1
 B  B2  1  0.77777  0.74000  0.03825  1
 B  B3  1  0.22223  0.25667  0.95965  1
 B  B4  1  0.72083  0.26107  0.46355  1
 Fe  Fe1  1  0.21228  0.23323  0.62620  1
 Li  Li1  1  0.25930  0.68354  0.18877  1
 Li  Li2  1  0.73945  0.31495  0.80933  1
 Li  Li3  1  0.24365  0.32184  0.31210  1
 Li  Li4  1  0.75662  0.68101  0.68973  1
 Mn  Mn1  1  0.71338  0.23747  0.12508  1
 Mn  Mn2  1  0.79011  0.76938  0.37674  1
 Mn  Mn3  1  0.28600  0.75879  0.87249  1
 O  O1  1  0.10454  0.30509  0.83891  1
 O  O2  1  0.60617  0.30947  0.34296  1
 O  O3  1  0.86747  0.69954  0.89433  1
 O  O4  1  0.13243  0.29789  0.10353  1
 O  O5  1  0.39766  0.69028  0.65617  1
 O  O6  1  0.05824  0.82177  0.56500  1
 O  O7  1  0.36883  0.70555  0.39408  1
 O  O8  1  0.55778  0.82082  0.06294  1
 O  O9  1  0.94791  0.18823  0.44332  1
 O  O10  1  0.62056  0.29356  0.60529  1
 O  O11  1  0.89485  0.69064  0.15802  1
 O  O12  1  0.44276  0.17736  0.93517  1
