CIF file written using JARVIS-Tools package.
data_ZnBi2O5
_symmetry_space_group_name_H-M  'P1'
_cell_length_a       3.8021
_cell_length_b       5.24176
_cell_length_c       11.9207
_cell_angle_alpha    91.9136
_cell_angle_beta     94.544
_cell_angle_gamma    87.767

_symmetry_Int_Tables_number  1
_chemical_formula_structural  ZnBi2O5
_chemical_formula_sum  Zn2Bi4O0
_cell_volume  236.53979278607815
_cell_formula_units_Z  2
loop_
  _symmetry_equiv_pos_site_id
 _symmetry_equiv_pos_as_xyz
 1  'x, y, z'
loop_
 _atom_site_type_symbol
 _atom_site_label
 _atom_site_symmetry_multiplicity
 _atom_site_fract_x
 _atom_site_fract_y
 _atom_site_fract_z
 _atom_site_fract_occupancy
 Bi  Bi1  1  0.97739  0.27921  0.86506  1
 Bi  Bi2  1  0.44039  0.60240  0.09564  1
 Bi  Bi3  1  0.05198  0.68475  0.39387  1
 Bi  Bi4  1  0.64188  0.27514  0.57475  1
 O  O1  1  0.01258  0.53566  0.22697  1
 O  O2  1  0.64453  0.49302  0.73659  1
 O  O3  1  0.18028  0.64691  0.90961  1
 O  O4  1  0.95825  0.31274  0.04676  1
 O  O5  1  0.09771  0.53541  0.56069  1
 O  O6  1  0.56280  0.51231  0.40338  1
 O  O7  1  0.03588  0.05307  0.70829  1
 O  O8  1  0.03316  0.07440  0.40365  1
 O  O9  1  0.47744  -0.01229  0.19090  1
 O  O10  1  0.50495  0.07733  0.88970  1
 Zn  Zn1  1  0.37688  0.79504  0.77304  1
 Zn  Zn2  1  0.97530  0.13206  0.20627  1
