CIF file written using JARVIS-Tools package.
data_MnPH6NO5
_symmetry_space_group_name_H-M  'Pmn2_1'
_cell_length_a       4.84858
_cell_length_b       5.74665
_cell_length_c       8.90183
_cell_angle_alpha    90
_cell_angle_beta     90
_cell_angle_gamma    90

_symmetry_Int_Tables_number  31
_chemical_formula_structural  MnPH6NO5
_chemical_formula_sum  Mn2P2H2N2O0
_cell_volume  248.03290117458525
_cell_formula_units_Z  2
loop_
  _symmetry_equiv_pos_site_id
 _symmetry_equiv_pos_as_xyz
 1  'x, y, z'
loop_
 _atom_site_type_symbol
 _atom_site_label
 _atom_site_symmetry_multiplicity
 _atom_site_fract_x
 _atom_site_fract_y
 _atom_site_fract_z
 _atom_site_fract_occupancy
 H  H1  1  0.32441  0.00000  0.46146  1
 H  H2  1  0.63763  0.35085  0.40809  1
 H  H3  1  0.82441  0.50000  0.53854  1
 H  H4  1  0.46498  0.50000  0.54341  1
 H  H5  1  0.58054  0.13720  0.80348  1
 H  H6  1  0.58054  0.86280  0.80348  1
 H  H7  1  0.08054  0.63720  0.19652  1
 H  H8  1  0.13763  0.14915  0.59191  1
 H  H9  1  0.13763  0.85085  0.59191  1
 H  H10  1  0.08054  0.36280  0.19652  1
 H  H11  1  0.63763  0.64915  0.40809  1
 H  H12  1  0.96498  0.00000  0.45659  1
 Mn  Mn1  1  0.53086  0.50000  0.02584  1
 Mn  Mn2  1  0.03086  0.00000  0.97416  1
 N  N1  1  0.64167  0.50000  0.47382  1
 N  N2  1  0.14167  0.00000  0.52618  1
 O  O1  1  0.64171  0.00000  0.37134  1
 O  O2  1  0.73858  0.21636  0.12612  1
 O  O3  1  0.73858  0.78364  0.12612  1
 O  O4  1  0.23858  0.28364  0.87388  1
 O  O5  1  0.23858  0.71636  0.87388  1
 O  O6  1  0.78329  0.50000  0.83395  1
 O  O7  1  0.14171  0.50000  0.62866  1
 O  O8  1  0.28329  0.00000  0.16605  1
 O  O9  1  0.20218  0.50000  0.20914  1
 O  O10  1  0.70218  0.00000  0.79086  1
 P  P1  1  0.09291  0.50000  0.80072  1
 P  P2  1  0.59291  0.00000  0.19928  1
