CIF file written using JARVIS-Tools package.
data_BaIn2Pt
_symmetry_space_group_name_H-M  'Cmcm'
_cell_length_a       4.53863
_cell_length_b       6.3389
_cell_length_c       8.14941
_cell_angle_alpha    90
_cell_angle_beta     90
_cell_angle_gamma    110.977

_symmetry_Int_Tables_number  63
_chemical_formula_structural  BaIn2Pt
_chemical_formula_sum  Ba2In4Pt2
_cell_volume  218.91825667733048
_cell_formula_units_Z  2
loop_
  _symmetry_equiv_pos_site_id
 _symmetry_equiv_pos_as_xyz
 1  'x, y, z'
loop_
 _atom_site_type_symbol
 _atom_site_label
 _atom_site_symmetry_multiplicity
 _atom_site_fract_x
 _atom_site_fract_y
 _atom_site_fract_z
 _atom_site_fract_occupancy
 Ba  Ba1  1  0.94653  0.89306  0.25000  1
 Ba  Ba2  1  0.05347  0.10694  0.75000  1
 In  In1  1  0.33930  0.67860  0.55562  1
 In  In2  1  0.66070  0.32140  0.44438  1
 In  In3  1  0.33930  0.67860  0.94438  1
 In  In4  1  0.66070  0.32140  0.05562  1
 Pt  Pt1  1  0.77488  0.54975  0.75000  1
 Pt  Pt2  1  0.22512  0.45025  0.25000  1
