CIF file written using JARVIS-Tools package.
data_TlCoO3
_symmetry_space_group_name_H-M  'R-3'
_cell_length_a       5.17617
_cell_length_b       5.93965
_cell_length_c       5.17617
_cell_angle_alpha    115.832
_cell_angle_beta     60
_cell_angle_gamma    115.832

_symmetry_Int_Tables_number  148
_chemical_formula_structural  TlCoO3
_chemical_formula_sum  Tl2Co2O6
_cell_volume  119.10393415368358
_cell_formula_units_Z  2
loop_
  _symmetry_equiv_pos_site_id
 _symmetry_equiv_pos_as_xyz
 1  'x, y, z'
loop_
 _atom_site_type_symbol
 _atom_site_label
 _atom_site_symmetry_multiplicity
 _atom_site_fract_x
 _atom_site_fract_y
 _atom_site_fract_z
 _atom_site_fract_occupancy
 Co  Co1  1  0.33770  0.01310  0.33770  1
 Co  Co2  1  0.66230  0.98690  0.66230  1
 O  O1  1  0.05844  0.20518  0.46788  1
 O  O2  1  0.46788  0.20518  0.67886  1
 O  O3  1  0.67886  0.20518  0.05844  1
 O  O4  1  0.32114  0.79482  0.94156  1
 O  O5  1  0.53212  0.79482  0.32114  1
 O  O6  1  0.94156  0.79482  0.53212  1
 Tl  Tl1  1  0.12713  0.38139  0.12713  1
 Tl  Tl2  1  0.87287  0.61861  0.87287  1
