CIF file written using JARVIS-Tools package.
data_Yb3Sm3S8
_symmetry_space_group_name_H-M  'C2'
_cell_length_a       7.28073
_cell_length_b       7.28864
_cell_length_c       7.28865
_cell_angle_alpha    109.546
_cell_angle_beta     108.977
_cell_angle_gamma    109.936

_symmetry_Int_Tables_number  5
_chemical_formula_structural  Yb3Sm3S8
_chemical_formula_sum  Yb3Sm3S8
_cell_volume  297.56404085510707
_cell_formula_units_Z  1
loop_
  _symmetry_equiv_pos_site_id
 _symmetry_equiv_pos_as_xyz
 1  'x, y, z'
loop_
 _atom_site_type_symbol
 _atom_site_label
 _atom_site_symmetry_multiplicity
 _atom_site_fract_x
 _atom_site_fract_y
 _atom_site_fract_z
 _atom_site_fract_occupancy
 S  S1  1  0.99648  0.85439  0.49824  1
 S  S2  1  0.50352  0.00176  0.85791  1
 S  S3  1  0.14682  0.14210  0.14130  1
 S  S4  1  0.35318  0.49448  0.99529  1
 S  S5  1  0.64256  0.64923  0.64724  1
 S  S6  1  0.50336  0.00145  0.35498  1
 S  S7  1  0.85744  0.50468  0.00667  1
 S  S8  1  0.99664  0.35161  0.49808  1
 Sm  Sm1  1  0.75000  0.87359  0.12359  1
 Sm  Sm2  1  0.62508  0.37623  0.25241  1
 Sm  Sm3  1  0.87492  0.12734  0.75115  1
 Yb  Yb1  1  0.12532  0.74763  0.87447  1
 Yb  Yb2  1  0.25000  0.62636  0.37636  1
 Yb  Yb3  1  0.37468  0.24915  0.62231  1
