CIF file written using JARVIS-Tools package.
data_UGaNi
_symmetry_space_group_name_H-M  'P-62m'
_cell_length_a       6.60674
_cell_length_b       6.60674
_cell_length_c       4.07734
_cell_angle_alpha    90
_cell_angle_beta     90
_cell_angle_gamma    120

_symmetry_Int_Tables_number  189
_chemical_formula_structural  UGaNi
_chemical_formula_sum  U3Ga3Ni3
_cell_volume  154.1279560227762
_cell_formula_units_Z  3
loop_
  _symmetry_equiv_pos_site_id
 _symmetry_equiv_pos_as_xyz
 1  'x, y, z'
loop_
 _atom_site_type_symbol
 _atom_site_label
 _atom_site_symmetry_multiplicity
 _atom_site_fract_x
 _atom_site_fract_y
 _atom_site_fract_z
 _atom_site_fract_occupancy
 Ga  Ga1  1  0.23845  0.00000  0.00000  1
 Ga  Ga2  1  0.76155  0.76155  0.00000  1
 Ga  Ga3  1  0.00000  0.23845  0.00000  1
 Ni  Ni1  1  0.33333  0.66667  0.00000  1
 Ni  Ni2  1  0.66667  0.33333  0.00000  1
 Ni  Ni3  1  0.00000  0.00000  0.50000  1
 U  U1  1  0.57303  -0.00000  0.50000  1
 U  U2  1  0.42697  0.42697  0.50000  1
 U  U3  1  -0.00000  0.57303  0.50000  1
