CIF file written using JARVIS-Tools package.
data_Ba2CuSi2O7
_symmetry_space_group_name_H-M  'P-42_1m'
_cell_length_a       8.3987
_cell_length_b       8.3987
_cell_length_c       5.31889
_cell_angle_alpha    90
_cell_angle_beta     90
_cell_angle_gamma    90

_symmetry_Int_Tables_number  113
_chemical_formula_structural  Ba2CuSi2O7
_chemical_formula_sum  Ba4Cu2Si4O4
_cell_volume  375.185055958365
_cell_formula_units_Z  2
loop_
  _symmetry_equiv_pos_site_id
 _symmetry_equiv_pos_as_xyz
 1  'x, y, z'
loop_
 _atom_site_type_symbol
 _atom_site_label
 _atom_site_symmetry_multiplicity
 _atom_site_fract_x
 _atom_site_fract_y
 _atom_site_fract_z
 _atom_site_fract_occupancy
 Ba  Ba1  1  0.66679  0.16679  0.50728  1
 Ba  Ba2  1  0.83321  0.66679  0.49272  1
 Ba  Ba3  1  0.16679  0.33321  0.49272  1
 Ba  Ba4  1  0.33321  0.83321  0.50728  1
 Cu  Cu1  1  0.50000  0.50000  0.00000  1
 Cu  Cu2  1  0.00000  0.00000  0.00000  1
 O  O1  1  0.69740  0.42134  0.84276  1
 O  O2  1  0.13381  0.63381  0.27969  1
 O  O3  1  0.42134  0.30260  0.15724  1
 O  O4  1  0.57866  0.69740  0.15724  1
 O  O5  1  0.92134  0.19740  0.84276  1
 O  O6  1  0.30260  0.57866  0.84276  1
 O  O7  1  0.19740  0.07866  0.15724  1
 O  O8  1  0.07866  0.80260  0.84276  1
 O  O9  1  0.00000  0.50000  0.87003  1
 O  O10  1  0.63381  0.86619  0.72031  1
 O  O11  1  0.80260  0.92134  0.15724  1
 O  O12  1  0.50000  0.00000  0.12997  1
 O  O13  1  0.86619  0.36619  0.27969  1
 O  O14  1  0.36619  0.13381  0.72031  1
 Si  Si1  1  0.13432  0.63432  0.97576  1
 Si  Si2  1  0.36568  0.13432  0.02424  1
 Si  Si3  1  0.63432  0.86568  0.02424  1
 Si  Si4  1  0.86568  0.36568  0.97576  1
