CIF file written using JARVIS-Tools package.
data_ZnNi4O8
_symmetry_space_group_name_H-M  'R-3m'
_cell_length_a       5.91622
_cell_length_b       5.91623
_cell_length_c       5.91623
_cell_angle_alpha    57.7425
_cell_angle_beta     57.7424
_cell_angle_gamma    57.7425

_symmetry_Int_Tables_number  166
_chemical_formula_structural  ZnNi4O8
_chemical_formula_sum  ZnNi4O8
_cell_volume  138.83350258513178
_cell_formula_units_Z  1
loop_
  _symmetry_equiv_pos_site_id
 _symmetry_equiv_pos_as_xyz
 1  'x, y, z'
loop_
 _atom_site_type_symbol
 _atom_site_label
 _atom_site_symmetry_multiplicity
 _atom_site_fract_x
 _atom_site_fract_y
 _atom_site_fract_z
 _atom_site_fract_occupancy
 Ni  Ni1  1  0.50000  1.00000  0.50000  1
 Ni  Ni2  1  1.00000  0.50000  0.50000  1
 Ni  Ni3  1  0.50000  0.50000  -0.00000  1
 Ni  Ni4  1  0.00000  0.00000  0.00000  1
 O  O1  1  0.75592  0.28438  0.75592  1
 O  O2  1  0.24408  0.24408  0.71562  1
 O  O3  1  0.24408  0.71562  0.24408  1
 O  O4  1  0.71562  0.24408  0.24408  1
 O  O5  1  0.26813  0.26813  0.26813  1
 O  O6  1  0.73187  0.73187  0.73187  1
 O  O7  1  0.28438  0.75592  0.75592  1
 O  O8  1  0.75592  0.75592  0.28438  1
 Zn  Zn1  1  0.50000  0.50000  0.50000  1
