CIF file written using JARVIS-Tools package.
data_RbIn4
_symmetry_space_group_name_H-M  'I4/mmm'
_cell_length_a       5.04601
_cell_length_b       5.04601
_cell_length_c       7.28398
_cell_angle_alpha    110.266
_cell_angle_beta     110.266
_cell_angle_gamma    89.9999

_symmetry_Int_Tables_number  139
_chemical_formula_structural  RbIn4
_chemical_formula_sum  RbIn4
_cell_volume  161.69060832948858
_cell_formula_units_Z  1
loop_
  _symmetry_equiv_pos_site_id
 _symmetry_equiv_pos_as_xyz
 1  'x, y, z'
loop_
 _atom_site_type_symbol
 _atom_site_label
 _atom_site_symmetry_multiplicity
 _atom_site_fract_x
 _atom_site_fract_y
 _atom_site_fract_z
 _atom_site_fract_occupancy
 In  In1  1  0.38460  0.38460  0.76920  1
 In  In2  1  0.61540  0.61540  0.23080  1
 In  In3  1  0.25000  0.75000  0.50000  1
 In  In4  1  0.75000  0.25000  0.50000  1
 Rb  Rb1  1  0.00000  0.00000  0.00000  1
