CIF file written using JARVIS-Tools package.
data_NbP
_symmetry_space_group_name_H-M  'I4_1/amd'
_cell_length_a       3.53537
_cell_length_b       3.53536
_cell_length_c       5.83225
_cell_angle_alpha    107.643
_cell_angle_beta     107.643
_cell_angle_gamma    90

_symmetry_Int_Tables_number  141
_chemical_formula_structural  NbP
_chemical_formula_sum  Nb2P2
_cell_volume  65.86017935930597
_cell_formula_units_Z  2
loop_
  _symmetry_equiv_pos_site_id
 _symmetry_equiv_pos_as_xyz
 1  'x, y, z'
loop_
 _atom_site_type_symbol
 _atom_site_label
 _atom_site_symmetry_multiplicity
 _atom_site_fract_x
 _atom_site_fract_y
 _atom_site_fract_z
 _atom_site_fract_occupancy
 Nb  Nb1  1  0.87500  0.62500  0.25000  1
 Nb  Nb2  1  0.12500  0.37500  0.75000  1
 P  P1  1  0.37500  0.12500  0.25000  1
 P  P2  1  0.62500  0.87500  0.75000  1
