CIF file written using JARVIS-Tools package.
data_Li3Si2Ni2O8
_symmetry_space_group_name_H-M  'P1'
_cell_length_a       4.94072
_cell_length_b       5.30045
_cell_length_c       6.32036
_cell_angle_alpha    89.2216
_cell_angle_beta     89.7888
_cell_angle_gamma    89.6141

_symmetry_Int_Tables_number  1
_chemical_formula_structural  Li3Si2Ni2O8
_chemical_formula_sum  Li3Si2Ni2O8
_cell_volume  165.4975625496186
_cell_formula_units_Z  1
loop_
  _symmetry_equiv_pos_site_id
 _symmetry_equiv_pos_as_xyz
 1  'x, y, z'
loop_
 _atom_site_type_symbol
 _atom_site_label
 _atom_site_symmetry_multiplicity
 _atom_site_fract_x
 _atom_site_fract_y
 _atom_site_fract_z
 _atom_site_fract_occupancy
 Li  Li1  1  0.49628  0.17314  0.99858  1
 Li  Li2  1  0.99775  0.82647  0.49879  1
 Li  Li3  1  0.00302  0.34033  0.24606  1
 Ni  Ni1  1  0.99142  0.82687  0.97853  1
 Ni  Ni2  1  0.50528  0.16557  0.49734  1
 O  O1  1  0.10357  0.18419  0.96881  1
 O  O2  1  0.66128  0.28345  0.74572  1
 O  O3  1  0.06971  0.62380  0.74722  1
 O  O4  1  0.11041  0.18918  0.53006  1
 O  O5  1  0.60389  0.82777  0.45446  1
 O  O6  1  0.59872  0.37884  0.25483  1
 O  O7  1  0.15835  0.68658  0.23691  1
 O  O8  1  0.61533  0.82593  0.03652  1
 Si  Si1  1  0.99133  0.32417  0.74844  1
 Si  Si2  1  0.49380  0.67741  0.24555  1
