CIF file written using JARVIS-Tools package.
data_Er2O3
_symmetry_space_group_name_H-M  'C2/m'
_cell_length_a       3.44666
_cell_length_b       7.14238
_cell_length_c       8.53095
_cell_angle_alpha    99.8809
_cell_angle_beta     90
_cell_angle_gamma    103.962

_symmetry_Int_Tables_number  12
_chemical_formula_structural  Er2O3
_chemical_formula_sum  Er6O9
_cell_volume  200.59371384475148
_cell_formula_units_Z  3
loop_
  _symmetry_equiv_pos_site_id
 _symmetry_equiv_pos_as_xyz
 1  'x, y, z'
loop_
 _atom_site_type_symbol
 _atom_site_label
 _atom_site_symmetry_multiplicity
 _atom_site_fract_x
 _atom_site_fract_y
 _atom_site_fract_z
 _atom_site_fract_occupancy
 Er  Er1  1  0.53272  0.06544  0.81380  1
 Er  Er2  1  0.46728  0.93456  0.18620  1
 Er  Er3  1  0.80911  0.61821  0.86271  1
 Er  Er4  1  0.19089  0.38179  0.13729  1
 Er  Er5  1  0.86486  0.72972  0.51309  1
 Er  Er6  1  0.13514  0.27028  0.48691  1
 O  O1  1  0.70686  0.41373  0.62329  1
 O  O2  1  0.29314  0.58627  0.37671  1
 O  O3  1  0.97054  0.94109  0.34345  1
 O  O4  1  0.02946  0.05891  0.65655  1
 O  O5  1  0.67459  0.34919  0.96884  1
 O  O6  1  0.32541  0.65081  0.03116  1
 O  O7  1  0.00000  0.00000  0.00000  1
 O  O8  1  0.37234  0.74467  0.71816  1
 O  O9  1  0.62766  0.25533  0.28184  1
