CIF file written using JARVIS-Tools package.
data_Ba2NF
_symmetry_space_group_name_H-M  'Cc'
_cell_length_a       5.72087
_cell_length_b       5.7046
_cell_length_c       7.03461
_cell_angle_alpha    113.931
_cell_angle_beta     114.004
_cell_angle_gamma    89.9806

_symmetry_Int_Tables_number  9
_chemical_formula_structural  Ba2NF
_chemical_formula_sum  Ba4N2F2
_cell_volume  187.92812231529115
_cell_formula_units_Z  2
loop_
  _symmetry_equiv_pos_site_id
 _symmetry_equiv_pos_as_xyz
 1  'x, y, z'
loop_
 _atom_site_type_symbol
 _atom_site_label
 _atom_site_symmetry_multiplicity
 _atom_site_fract_x
 _atom_site_fract_y
 _atom_site_fract_z
 _atom_site_fract_occupancy
 Ba  Ba1  1  0.77098  0.76720  0.53388  1
 Ba  Ba2  1  0.23647  0.23342  0.46601  1
 Ba  Ba3  1  0.48721  0.98346  0.96635  1
 Ba  Ba4  1  0.02056  0.51753  0.03422  1
 F  F1  1  0.50029  0.49978  0.00052  1
 F  F2  1  0.74991  0.24938  0.49977  1
 N  N1  1  0.99150  0.99737  -0.00008  1
 N  N2  1  0.24166  0.74761  0.50032  1
