CIF file written using JARVIS-Tools package.
data_LiSbP2O8
_symmetry_space_group_name_H-M  'P2_1/m'
_cell_length_a       4.837
_cell_length_b       5.78452
_cell_length_c       9.84778
_cell_angle_alpha    90
_cell_angle_beta     91.1087
_cell_angle_gamma    90

_symmetry_Int_Tables_number  11
_chemical_formula_structural  LiSbP2O8
_chemical_formula_sum  Li2Sb2P4O6
_cell_volume  275.4862582678274
_cell_formula_units_Z  2
loop_
  _symmetry_equiv_pos_site_id
 _symmetry_equiv_pos_as_xyz
 1  'x, y, z'
loop_
 _atom_site_type_symbol
 _atom_site_label
 _atom_site_symmetry_multiplicity
 _atom_site_fract_x
 _atom_site_fract_y
 _atom_site_fract_z
 _atom_site_fract_occupancy
 Li  Li1  1  0.60154  0.25000  0.22101  1
 Li  Li2  1  0.39846  0.75000  0.77899  1
 O  O1  1  0.34858  0.25000  0.06377  1
 O  O2  1  0.32462  0.75000  0.12643  1
 O  O3  1  0.79677  0.95421  0.16420  1
 O  O4  1  0.67538  0.25000  0.87357  1
 O  O5  1  0.26248  0.03456  0.34698  1
 O  O6  1  0.26248  0.46544  0.34698  1
 O  O7  1  0.79677  0.54579  0.16420  1
 O  O8  1  0.80100  0.75000  0.43164  1
 O  O9  1  0.19900  0.25000  0.56836  1
 O  O10  1  0.19282  0.75000  0.60718  1
 O  O11  1  0.73752  0.96544  0.65302  1
 O  O12  1  0.73752  0.53456  0.65302  1
 O  O13  1  0.20323  0.45421  0.83580  1
 O  O14  1  0.20323  0.04579  0.83580  1
 O  O15  1  0.80718  0.25000  0.39282  1
 O  O16  1  0.65142  0.75000  0.93623  1
 P  P1  1  0.36422  0.25000  0.91380  1
 P  P2  1  0.88842  0.75000  0.58681  1
 P  P3  1  0.11158  0.25000  0.41319  1
 P  P4  1  0.63578  0.75000  0.08620  1
 Sb  Sb1  1  0.93715  0.25000  0.72345  1
 Sb  Sb2  1  0.06285  0.75000  0.27655  1
