CIF file written using JARVIS-Tools package.
data_KNaS
_symmetry_space_group_name_H-M  'Pnma'
_cell_length_a       4.62495
_cell_length_b       7.75799
_cell_length_c       8.29849
_cell_angle_alpha    90
_cell_angle_beta     90
_cell_angle_gamma    90

_symmetry_Int_Tables_number  62
_chemical_formula_structural  KNaS
_chemical_formula_sum  K4Na4S4
_cell_volume  297.7522130080544
_cell_formula_units_Z  4
loop_
  _symmetry_equiv_pos_site_id
 _symmetry_equiv_pos_as_xyz
 1  'x, y, z'
loop_
 _atom_site_type_symbol
 _atom_site_label
 _atom_site_symmetry_multiplicity
 _atom_site_fract_x
 _atom_site_fract_y
 _atom_site_fract_z
 _atom_site_fract_occupancy
 K  K1  1  0.75000  0.98763  0.18423  1
 K  K2  1  0.25000  0.01237  0.81577  1
 K  K3  1  0.75000  0.48763  0.31577  1
 K  K4  1  0.25000  0.51237  0.68423  1
 Na  Na1  1  0.75000  0.85332  0.57555  1
 Na  Na2  1  0.25000  0.14668  0.42445  1
 Na  Na3  1  0.75000  0.35332  0.92445  1
 Na  Na4  1  0.25000  0.64668  0.07555  1
 S  S1  1  0.75000  0.71909  0.89496  1
 S  S2  1  0.25000  0.28091  0.10504  1
 S  S3  1  0.75000  0.21909  0.60504  1
 S  S4  1  0.25000  0.78091  0.39496  1
