CIF file written using JARVIS-Tools package.
data_H2SO4
_symmetry_space_group_name_H-M  'Fdd2'
_cell_length_a       4.73352
_cell_length_b       4.73352
_cell_length_c       8.99843
_cell_angle_alpha    66.192
_cell_angle_beta     113.808
_cell_angle_gamma    122.336

_symmetry_Int_Tables_number  43
_chemical_formula_structural  H2SO4
_chemical_formula_sum  H4S2O8
_cell_volume  151.18968361323925
_cell_formula_units_Z  2
loop_
  _symmetry_equiv_pos_site_id
 _symmetry_equiv_pos_as_xyz
 1  'x, y, z'
loop_
 _atom_site_type_symbol
 _atom_site_label
 _atom_site_symmetry_multiplicity
 _atom_site_fract_x
 _atom_site_fract_y
 _atom_site_fract_z
 _atom_site_fract_occupancy
 H  H1  1  0.50000  0.24562  0.13645  1
 H  H2  1  0.24562  0.50000  0.36355  1
 H  H3  1  0.36384  0.88214  0.86351  1
 H  H4  1  0.88214  0.36384  0.63649  1
 O  O1  1  0.60286  0.77717  0.82944  1
 O  O2  1  0.77717  0.60286  0.67056  1
 O  O3  1  0.30736  0.30476  0.11336  1
 O  O4  1  0.30476  0.30736  0.38664  1
 O  O5  1  0.19443  0.91843  0.88658  1
 O  O6  1  0.91843  0.19443  0.61342  1
 O  O7  1  0.77306  0.10627  0.17066  1
 O  O8  1  0.10627  0.77306  0.32934  1
 S  S1  1  0.85288  0.85288  0.75000  1
 S  S2  1  0.10251  0.10251  0.25000  1
