CIF file written using JARVIS-Tools package.
data_K3NaCr2O8
_symmetry_space_group_name_H-M  'P-3m1'
_cell_length_a       5.8372
_cell_length_b       5.8372
_cell_length_c       7.50401
_cell_angle_alpha    90
_cell_angle_beta     90
_cell_angle_gamma    120

_symmetry_Int_Tables_number  164
_chemical_formula_structural  K3NaCr2O8
_chemical_formula_sum  K3NaCr2O8
_cell_volume  221.4277570576319
_cell_formula_units_Z  1
loop_
  _symmetry_equiv_pos_site_id
 _symmetry_equiv_pos_as_xyz
 1  'x, y, z'
loop_
 _atom_site_type_symbol
 _atom_site_label
 _atom_site_symmetry_multiplicity
 _atom_site_fract_x
 _atom_site_fract_y
 _atom_site_fract_z
 _atom_site_fract_occupancy
 Cr  Cr1  1  0.66667  0.33333  0.72205  1
 Cr  Cr2  1  0.33333  0.66667  0.27795  1
 K  K1  1  0.00000  0.00000  0.50000  1
 K  K2  1  0.66667  0.33333  0.15906  1
 K  K3  1  0.33333  0.66667  0.84094  1
 Na  Na1  1  0.00000  0.00000  0.00000  1
 O  O1  1  0.82087  0.17913  0.80115  1
 O  O2  1  0.82087  0.64174  0.80115  1
 O  O3  1  0.35826  0.17913  0.80115  1
 O  O4  1  0.17913  0.35826  0.19885  1
 O  O5  1  0.17913  0.82087  0.19885  1
 O  O6  1  0.64174  0.82087  0.19885  1
 O  O7  1  0.33333  0.66667  0.49674  1
 O  O8  1  0.66667  0.33333  0.50326  1
