CIF file written using JARVIS-Tools package.
data_ZnH2SO5
_symmetry_space_group_name_H-M  'C2/c'
_cell_length_a       5.16737
_cell_length_b       5.16737
_cell_length_c       7.57877
_cell_angle_alpha    72.328
_cell_angle_beta     107.672
_cell_angle_gamma    82.9953

_symmetry_Int_Tables_number  15
_chemical_formula_structural  ZnH2SO5
_chemical_formula_sum  Zn2H4S2O0
_cell_volume  178.53523552466737
_cell_formula_units_Z  2
loop_
  _symmetry_equiv_pos_site_id
 _symmetry_equiv_pos_as_xyz
 1  'x, y, z'
loop_
 _atom_site_type_symbol
 _atom_site_label
 _atom_site_symmetry_multiplicity
 _atom_site_fract_x
 _atom_site_fract_y
 _atom_site_fract_z
 _atom_site_fract_occupancy
 H  H1  1  0.42366  0.15418  0.79469  1
 H  H2  1  0.15418  0.42366  0.70531  1
 H  H3  1  0.57634  0.84582  0.20531  1
 H  H4  1  0.84582  0.57634  0.29469  1
 O  O1  1  0.38121  0.16188  0.16139  1
 O  O2  1  0.36334  0.36334  0.75000  1
 O  O3  1  0.78115  0.11793  0.59490  1
 O  O4  1  0.88207  0.21885  0.09490  1
 O  O5  1  0.11793  0.78115  0.90510  1
 O  O6  1  0.83812  0.61879  0.66139  1
 O  O7  1  0.63666  0.63666  0.25000  1
 O  O8  1  0.16188  0.38121  0.33861  1
 O  O9  1  0.21885  0.88207  0.40510  1
 O  O10  1  0.61879  0.83812  0.83861  1
 S  S1  1  0.15839  0.15839  0.25000  1
 S  S2  1  0.84161  0.84161  0.75000  1
 Zn  Zn1  1  0.50000  0.50000  0.00000  1
 Zn  Zn2  1  0.50000  0.50000  0.50000  1
