CIF file written using JARVIS-Tools package.
data_ScP2O7
_symmetry_space_group_name_H-M  'P2_1'
_cell_length_a       5.14097
_cell_length_b       8.48896
_cell_length_c       7.13961
_cell_angle_alpha    90
_cell_angle_beta     107.211
_cell_angle_gamma    90

_symmetry_Int_Tables_number  4
_chemical_formula_structural  ScP2O7
_chemical_formula_sum  Sc2P4O4
_cell_volume  297.63080171943557
_cell_formula_units_Z  2
loop_
  _symmetry_equiv_pos_site_id
 _symmetry_equiv_pos_as_xyz
 1  'x, y, z'
loop_
 _atom_site_type_symbol
 _atom_site_label
 _atom_site_symmetry_multiplicity
 _atom_site_fract_x
 _atom_site_fract_y
 _atom_site_fract_z
 _atom_site_fract_occupancy
 O  O1  1  0.83590  0.06364  0.52034  1
 O  O2  1  -0.00606  0.83616  0.83016  1
 O  O3  1  0.14706  0.17754  0.91688  1
 O  O4  1  0.56855  0.90971  0.91155  1
 O  O5  1  0.85294  0.67754  0.08312  1
 O  O6  1  0.44400  0.16846  0.62708  1
 O  O7  1  0.58789  0.65227  0.73276  1
 O  O8  1  0.27618  0.85279  0.51514  1
 O  O9  1  0.72382  0.35279  0.48486  1
 O  O10  1  0.00606  0.33616  0.16984  1
 O  O11  1  0.55600  0.66846  0.37292  1
 O  O12  1  0.41211  0.15227  0.26724  1
 O  O13  1  0.43145  0.40971  0.08845  1
 O  O14  1  0.16410  0.56364  0.47966  1
 P  P1  1  0.24186  0.27407  0.10223  1
 P  P2  1  0.61134  0.18705  0.48456  1
 P  P3  1  0.38866  0.68705  0.51544  1
 P  P4  1  0.75814  0.77407  0.89777  1
 Sc  Sc1  1  0.79308  0.50792  0.27425  1
 Sc  Sc2  1  0.20692  0.00792  0.72575  1
