CIF file written using JARVIS-Tools package.
data_HfSn
_symmetry_space_group_name_H-M  'P2_13'
_cell_length_a       5.65705
_cell_length_b       5.65705
_cell_length_c       5.65705
_cell_angle_alpha    90
_cell_angle_beta     90
_cell_angle_gamma    90

_symmetry_Int_Tables_number  198
_chemical_formula_structural  HfSn
_chemical_formula_sum  Hf4Sn4
_cell_volume  181.0377823632213
_cell_formula_units_Z  4
loop_
  _symmetry_equiv_pos_site_id
 _symmetry_equiv_pos_as_xyz
 1  'x, y, z'
loop_
 _atom_site_type_symbol
 _atom_site_label
 _atom_site_symmetry_multiplicity
 _atom_site_fract_x
 _atom_site_fract_y
 _atom_site_fract_z
 _atom_site_fract_occupancy
 Hf  Hf1  1  0.85654  0.64346  0.35654  1
 Hf  Hf2  1  0.64346  0.35654  0.85654  1
 Hf  Hf3  1  0.35654  0.85654  0.64346  1
 Hf  Hf4  1  0.14346  0.14346  0.14346  1
 Sn  Sn1  1  0.15681  0.34319  0.65681  1
 Sn  Sn2  1  0.34319  0.65681  0.15681  1
 Sn  Sn3  1  0.65681  0.15681  0.34319  1
 Sn  Sn4  1  0.84319  0.84319  0.84319  1
