CIF file written using JARVIS-Tools package.
data_NaBS2O8
_symmetry_space_group_name_H-M  'P2/c'
_cell_length_a       5.43549
_cell_length_b       7.57691
_cell_length_c       7.81001
_cell_angle_alpha    90
_cell_angle_beta     109.083
_cell_angle_gamma    90

_symmetry_Int_Tables_number  13
_chemical_formula_structural  NaBS2O8
_chemical_formula_sum  Na2B2S4O6
_cell_volume  303.97379362163673
_cell_formula_units_Z  2
loop_
  _symmetry_equiv_pos_site_id
 _symmetry_equiv_pos_as_xyz
 1  'x, y, z'
loop_
 _atom_site_type_symbol
 _atom_site_label
 _atom_site_symmetry_multiplicity
 _atom_site_fract_x
 _atom_site_fract_y
 _atom_site_fract_z
 _atom_site_fract_occupancy
 B  B1  1  0.00000  0.95393  0.75000  1
 B  B2  1  0.00000  0.04607  0.25000  1
 Na  Na1  1  0.50000  0.56320  0.25000  1
 Na  Na2  1  0.50000  0.43680  0.75000  1
 O  O1  1  0.12580  0.28790  0.58739  1
 O  O2  1  0.87420  0.28790  0.91261  1
 O  O3  1  0.87420  0.71210  0.41261  1
 O  O4  1  0.34511  0.65457  0.50868  1
 O  O5  1  0.81871  0.05770  0.60312  1
 O  O6  1  0.18129  0.05770  0.89688  1
 O  O7  1  0.12580  0.71210  0.08739  1
 O  O8  1  0.81871  0.94230  0.10312  1
 O  O9  1  0.82247  0.15956  0.31102  1
 O  O10  1  0.17753  0.84044  0.68898  1
 O  O11  1  0.18129  0.94230  0.39688  1
 O  O12  1  0.82247  0.84044  0.81102  1
 O  O13  1  0.65489  0.34543  0.49132  1
 O  O14  1  0.34511  0.34543  0.00868  1
 O  O15  1  0.17753  0.15956  0.18898  1
 O  O16  1  0.65489  0.65457  0.99132  1
 S  S1  1  0.86453  0.77462  0.00468  1
 S  S2  1  0.13547  0.77462  0.49532  1
 S  S3  1  0.13547  0.22538  0.99532  1
 S  S4  1  0.86453  0.22538  0.50468  1
