CIF file written using JARVIS-Tools package.
data_NiO2
_symmetry_space_group_name_H-M  'P4_2/mnm'
_cell_length_a       5.21381
_cell_length_b       5.2138
_cell_length_c       5.84772
_cell_angle_alpha    55.8894
_cell_angle_beta     55.8894
_cell_angle_gamma    71.6641

_symmetry_Int_Tables_number  136
_chemical_formula_structural  NiO2
_chemical_formula_sum  Ni4O8
_cell_volume  108.97084949995516
_cell_formula_units_Z  4
loop_
  _symmetry_equiv_pos_site_id
 _symmetry_equiv_pos_as_xyz
 1  'x, y, z'
loop_
 _atom_site_type_symbol
 _atom_site_label
 _atom_site_symmetry_multiplicity
 _atom_site_fract_x
 _atom_site_fract_y
 _atom_site_fract_z
 _atom_site_fract_occupancy
 Ni  Ni1  1  0.12498  0.12498  0.87502  1
 Ni  Ni2  1  0.12502  0.12502  0.37498  1
 Ni  Ni3  1  0.62500  0.62500  0.12500  1
 Ni  Ni4  1  0.62500  0.62500  0.62500  1
 O  O1  1  0.31945  0.31945  0.43057  1
 O  O2  1  0.43056  0.81947  0.37498  1
 O  O3  1  0.31945  0.31945  0.93054  1
 O  O4  1  0.81947  0.43056  0.37498  1
 O  O5  1  0.43053  0.81944  0.87502  1
 O  O6  1  0.81944  0.43053  0.87502  1
 O  O7  1  0.93055  0.93055  0.31946  1
 O  O8  1  0.93055  0.93055  0.81943  1
