CIF file written using JARVIS-Tools package.
data_NpCo2Ge2
_symmetry_space_group_name_H-M  'I4/mmm'
_cell_length_a       4.00065
_cell_length_b       4.00065
_cell_length_c       5.61886
_cell_angle_alpha    110.855
_cell_angle_beta     110.855
_cell_angle_gamma    89.9999

_symmetry_Int_Tables_number  139
_chemical_formula_structural  NpCo2Ge2
_chemical_formula_sum  NpCo2Ge2
_cell_volume  77.7018258348717
_cell_formula_units_Z  1
loop_
  _symmetry_equiv_pos_site_id
 _symmetry_equiv_pos_as_xyz
 1  'x, y, z'
loop_
 _atom_site_type_symbol
 _atom_site_label
 _atom_site_symmetry_multiplicity
 _atom_site_fract_x
 _atom_site_fract_y
 _atom_site_fract_z
 _atom_site_fract_occupancy
 Co  Co1  1  0.25000  0.75000  0.50000  1
 Co  Co2  1  0.75000  0.25000  0.50000  1
 Ge  Ge1  1  0.62689  0.62689  0.25378  1
 Ge  Ge2  1  0.37311  0.37311  0.74622  1
 Np  Np1  1  0.00000  0.00000  0.00000  1
