CIF file written using JARVIS-Tools package.
data_Li2HIO
_symmetry_space_group_name_H-M  'Pnma'
_cell_length_a       5.52702
_cell_length_b       6.64658
_cell_length_c       10.1826
_cell_angle_alpha    90
_cell_angle_beta     90
_cell_angle_gamma    90

_symmetry_Int_Tables_number  62
_chemical_formula_structural  Li2HIO
_chemical_formula_sum  Li8H4I4O4
_cell_volume  374.06746037557537
_cell_formula_units_Z  4
loop_
  _symmetry_equiv_pos_site_id
 _symmetry_equiv_pos_as_xyz
 1  'x, y, z'
loop_
 _atom_site_type_symbol
 _atom_site_label
 _atom_site_symmetry_multiplicity
 _atom_site_fract_x
 _atom_site_fract_y
 _atom_site_fract_z
 _atom_site_fract_occupancy
 H  H1  1  0.75000  0.22482  0.44690  1
 H  H2  1  0.25000  0.77518  0.55310  1
 H  H3  1  0.25000  0.72482  0.05310  1
 H  H4  1  0.75000  0.27518  0.94690  1
 I  I1  1  0.75000  0.91744  0.82858  1
 I  I2  1  0.75000  0.58256  0.32858  1
 I  I3  1  0.25000  0.08256  0.17142  1
 I  I4  1  0.25000  0.41744  0.67142  1
 Li  Li1  1  0.00045  0.56227  0.88954  1
 Li  Li2  1  0.49955  0.56227  0.88954  1
 Li  Li3  1  0.50045  0.06227  0.61046  1
 Li  Li4  1  -0.00045  0.43773  0.11046  1
 Li  Li5  1  -0.00045  0.06227  0.61046  1
 Li  Li6  1  0.50045  0.43773  0.11046  1
 Li  Li7  1  0.49955  0.93773  0.38954  1
 Li  Li8  1  0.00045  0.93773  0.38954  1
 O  O1  1  0.75000  0.08532  0.47886  1
 O  O2  1  0.25000  0.91468  0.52114  1
 O  O3  1  0.25000  0.58532  0.02114  1
 O  O4  1  0.75000  0.41468  0.97886  1
