CIF file written using JARVIS-Tools package.
data_YMnSi
_symmetry_space_group_name_H-M  'P4/nmm'
_cell_length_a       3.93708
_cell_length_b       3.93708
_cell_length_c       7.08794
_cell_angle_alpha    90
_cell_angle_beta     90
_cell_angle_gamma    90

_symmetry_Int_Tables_number  129
_chemical_formula_structural  YMnSi
_chemical_formula_sum  Y2Mn2Si2
_cell_volume  109.86753975803842
_cell_formula_units_Z  2
loop_
  _symmetry_equiv_pos_site_id
 _symmetry_equiv_pos_as_xyz
 1  'x, y, z'
loop_
 _atom_site_type_symbol
 _atom_site_label
 _atom_site_symmetry_multiplicity
 _atom_site_fract_x
 _atom_site_fract_y
 _atom_site_fract_z
 _atom_site_fract_occupancy
 Mn  Mn1  1  0.50000  0.50000  0.00000  1
 Mn  Mn2  1  0.00000  0.00000  0.00000  1
 Si  Si1  1  0.50000  0.00000  0.79689  1
 Si  Si2  1  0.00000  0.50000  0.20311  1
 Y  Y1  1  0.00000  0.50000  0.66825  1
 Y  Y2  1  0.50000  0.00000  0.33175  1
