CIF file written using JARVIS-Tools package.
data_TeH6O6
_symmetry_space_group_name_H-M  'P1'
_cell_length_a       5.30968
_cell_length_b       5.52428
_cell_length_c       5.24417
_cell_angle_alpha    95.1246
_cell_angle_beta     116.857
_cell_angle_gamma    117.02

_symmetry_Int_Tables_number  1
_chemical_formula_structural  TeH6O6
_chemical_formula_sum  TeH6O6
_cell_volume  113.54615635604891
_cell_formula_units_Z  1
loop_
  _symmetry_equiv_pos_site_id
 _symmetry_equiv_pos_as_xyz
 1  'x, y, z'
loop_
 _atom_site_type_symbol
 _atom_site_label
 _atom_site_symmetry_multiplicity
 _atom_site_fract_x
 _atom_site_fract_y
 _atom_site_fract_z
 _atom_site_fract_occupancy
 H  H1  1  0.11875  0.42114  0.86912  1
 H  H2  1  0.62554  0.16795  0.30950  1
 H  H3  1  0.00794  0.73715  0.60368  1
 H  H4  1  0.61467  0.54060  0.06719  1
 H  H5  1  0.51681  0.92715  0.57038  1
 H  H6  1  0.17354  0.41964  0.39690  1
 O  O1  1  0.19897  0.28816  0.87368  1
 O  O2  1  0.47560  0.14902  0.38393  1
 O  O3  1  0.09826  0.74603  0.82050  1
 O  O4  1  0.86274  0.70456  0.20993  1
 O  O5  1  0.55404  0.78413  0.66282  1
 O  O6  1  0.94874  0.23773  0.23403  1
 Te  Te1  1  0.01294  0.98101  0.02629  1
