CIF file written using JARVIS-Tools package.
data_Li2ZnGeO4
_symmetry_space_group_name_H-M  'Pc'
_cell_length_a       5.07798
_cell_length_b       5.46734
_cell_length_c       8.12383
_cell_angle_alpha    90
_cell_angle_beta     128.472
_cell_angle_gamma    90

_symmetry_Int_Tables_number  7
_chemical_formula_structural  Li2ZnGeO4
_chemical_formula_sum  Li4Zn2Ge2O8
_cell_volume  176.57865115610096
_cell_formula_units_Z  2
loop_
  _symmetry_equiv_pos_site_id
 _symmetry_equiv_pos_as_xyz
 1  'x, y, z'
loop_
 _atom_site_type_symbol
 _atom_site_label
 _atom_site_symmetry_multiplicity
 _atom_site_fract_x
 _atom_site_fract_y
 _atom_site_fract_z
 _atom_site_fract_occupancy
 Ge  Ge1  1  0.99630  0.83312  0.50026  1
 Ge  Ge2  1  0.99630  0.16688  0.00026  1
 Li  Li1  1  0.50131  0.83589  0.00030  1
 Li  Li2  1  0.75218  0.67180  0.75148  1
 Li  Li3  1  0.75218  0.32820  0.25148  1
 Li  Li4  1  0.50131  0.16411  0.50030  1
 O  O1  1  0.64513  0.17317  0.00147  1
 O  O2  1  0.87604  0.67606  0.26901  1
 O  O3  1  0.64513  0.82683  0.50147  1
 O  O4  1  0.87604  0.32394  0.76901  1
 O  O5  1  0.11078  0.14136  0.49874  1
 O  O6  1  0.11078  0.85864  -0.00126  1
 O  O7  1  0.34436  0.68077  0.73155  1
 O  O8  1  0.34436  0.31923  0.23155  1
 Zn  Zn1  1  0.24791  0.66420  0.24817  1
 Zn  Zn2  1  0.24791  0.33580  0.74817  1
