CIF file written using JARVIS-Tools package.
data_RbCdN3O6
_symmetry_space_group_name_H-M  'R3'
_cell_length_a       5.38623
_cell_length_b       5.38623
_cell_length_c       5.38623
_cell_angle_alpha    90.7585
_cell_angle_beta     90.7584
_cell_angle_gamma    90.7585

_symmetry_Int_Tables_number  146
_chemical_formula_structural  RbCdN3O6
_chemical_formula_sum  RbCdN3O6
_cell_volume  156.22081965856646
_cell_formula_units_Z  1
loop_
  _symmetry_equiv_pos_site_id
 _symmetry_equiv_pos_as_xyz
 1  'x, y, z'
loop_
 _atom_site_type_symbol
 _atom_site_label
 _atom_site_symmetry_multiplicity
 _atom_site_fract_x
 _atom_site_fract_y
 _atom_site_fract_z
 _atom_site_fract_occupancy
 Cd  Cd1  1  0.01211  0.01211  0.01211  1
 N  N1  1  0.07150  0.46456  0.02819  1
 N  N2  1  0.46456  0.02819  0.07150  1
 N  N3  1  0.02819  0.07150  0.46456  1
 O  O1  1  0.58068  0.23146  0.06968  1
 O  O2  1  0.06968  0.58068  0.23146  1
 O  O3  1  0.83344  0.06155  0.59464  1
 O  O4  1  0.59464  0.83344  0.06155  1
 O  O5  1  0.06155  0.59464  0.83344  1
 O  O6  1  0.23146  0.06968  0.58068  1
 Rb  Rb1  1  0.54763  0.54763  0.54763  1
