CIF file written using JARVIS-Tools package.
data_Sr2Si
_symmetry_space_group_name_H-M  'Pnma'
_cell_length_a       5.12923
_cell_length_b       8.05102
_cell_length_c       9.5646
_cell_angle_alpha    90
_cell_angle_beta     90
_cell_angle_gamma    90

_symmetry_Int_Tables_number  62
_chemical_formula_structural  Sr2Si
_chemical_formula_sum  Sr8Si4
_cell_volume  394.9751497064783
_cell_formula_units_Z  4
loop_
  _symmetry_equiv_pos_site_id
 _symmetry_equiv_pos_as_xyz
 1  'x, y, z'
loop_
 _atom_site_type_symbol
 _atom_site_label
 _atom_site_symmetry_multiplicity
 _atom_site_fract_x
 _atom_site_fract_y
 _atom_site_fract_z
 _atom_site_fract_occupancy
 Si  Si1  1  0.25000  0.25209  0.89758  1
 Si  Si2  1  0.75000  0.74791  0.10242  1
 Si  Si3  1  0.25000  0.75209  0.60242  1
 Si  Si4  1  0.75000  0.24791  0.39758  1
 Sr  Sr1  1  0.75000  0.98091  0.82413  1
 Sr  Sr2  1  0.25000  0.01909  0.17587  1
 Sr  Sr3  1  0.75000  0.48091  0.67587  1
 Sr  Sr4  1  0.25000  0.51909  0.32413  1
 Sr  Sr5  1  0.25000  0.65224  0.92206  1
 Sr  Sr6  1  0.75000  0.34776  0.07794  1
 Sr  Sr7  1  0.25000  0.15224  0.57794  1
 Sr  Sr8  1  0.75000  0.84776  0.42206  1
