CIF file written using JARVIS-Tools package.
data_GeSb4Te7
_symmetry_space_group_name_H-M  'P-3m1'
_cell_length_a       4.33255
_cell_length_b       4.33255
_cell_length_c       24.0172
_cell_angle_alpha    90
_cell_angle_beta     90
_cell_angle_gamma    120

_symmetry_Int_Tables_number  164
_chemical_formula_structural  GeSb4Te7
_chemical_formula_sum  GeSb4Te7
_cell_volume  390.4275954884058
_cell_formula_units_Z  1
loop_
  _symmetry_equiv_pos_site_id
 _symmetry_equiv_pos_as_xyz
 1  'x, y, z'
loop_
 _atom_site_type_symbol
 _atom_site_label
 _atom_site_symmetry_multiplicity
 _atom_site_fract_x
 _atom_site_fract_y
 _atom_site_fract_z
 _atom_site_fract_occupancy
 Ge  Ge1  1  0.00000  0.00000  0.50000  1
 Sb  Sb1  1  0.33333  0.66667  0.08344  1
 Sb  Sb2  1  0.66667  0.33333  0.65519  1
 Sb  Sb3  1  0.66667  0.33333  0.91656  1
 Sb  Sb4  1  0.33333  0.66667  0.34481  1
 Te  Te1  1  0.66667  0.33333  0.15507  1
 Te  Te2  1  0.33333  0.66667  0.84493  1
 Te  Te3  1  0.00000  0.00000  0.27346  1
 Te  Te4  1  0.33333  0.66667  0.57081  1
 Te  Te5  1  0.66667  0.33333  0.42919  1
 Te  Te6  1  0.00000  0.00000  0.00000  1
 Te  Te7  1  0.00000  0.00000  0.72654  1
