CIF file written using JARVIS-Tools package.
data_Na3SiSnBO7
_symmetry_space_group_name_H-M  'P2_1/m'
_cell_length_a       5.31226
_cell_length_b       6.73208
_cell_length_c       9.06594
_cell_angle_alpha    90
_cell_angle_beta     91.6213
_cell_angle_gamma    90

_symmetry_Int_Tables_number  11
_chemical_formula_structural  Na3SiSnBO7
_chemical_formula_sum  Na6Si2Sn2B2O4
_cell_volume  324.09073691518546
_cell_formula_units_Z  2
loop_
  _symmetry_equiv_pos_site_id
 _symmetry_equiv_pos_as_xyz
 1  'x, y, z'
loop_
 _atom_site_type_symbol
 _atom_site_label
 _atom_site_symmetry_multiplicity
 _atom_site_fract_x
 _atom_site_fract_y
 _atom_site_fract_z
 _atom_site_fract_occupancy
 B  B1  1  0.27957  0.25000  0.06007  1
 B  B2  1  0.72043  0.75000  0.93993  1
 Na  Na1  1  0.23256  0.75000  0.08095  1
 Na  Na2  1  0.74662  0.99322  0.24814  1
 Na  Na3  1  0.74662  0.50678  0.24814  1
 Na  Na4  1  0.25338  0.49322  0.75186  1
 Na  Na5  1  0.25338  0.00678  0.75186  1
 Na  Na6  1  0.76744  0.25000  0.91905  1
 O  O1  1  0.95959  0.75000  0.87630  1
 O  O2  1  0.04041  0.25000  0.12370  1
 O  O3  1  0.47649  0.25000  0.16999  1
 O  O4  1  0.20571  0.94152  0.32011  1
 O  O5  1  0.20571  0.55848  0.32011  1
 O  O6  1  0.67857  0.75000  0.08494  1
 O  O7  1  0.85678  0.25000  0.41780  1
 O  O8  1  0.14322  0.75000  0.58220  1
 O  O9  1  0.52351  0.75000  0.83001  1
 O  O10  1  0.79429  0.44152  0.67989  1
 O  O11  1  0.79429  0.05848  0.67989  1
 O  O12  1  0.59346  0.75000  0.45856  1
 O  O13  1  0.40654  0.25000  0.54144  1
 O  O14  1  0.32143  0.25000  0.91506  1
 Si  Si1  1  0.71626  0.25000  0.57612  1
 Si  Si2  1  0.28374  0.75000  0.42388  1
 Sn  Sn1  1  0.21643  0.25000  0.34018  1
 Sn  Sn2  1  0.78357  0.75000  0.65982  1
