CIF file written using JARVIS-Tools package.
data_Sn5B2Ir6
_symmetry_space_group_name_H-M  'P-62m'
_cell_length_a       6.7257
_cell_length_b       6.7257
_cell_length_c       5.65539
_cell_angle_alpha    90
_cell_angle_beta     90
_cell_angle_gamma    120

_symmetry_Int_Tables_number  189
_chemical_formula_structural  Sn5B2Ir6
_chemical_formula_sum  Sn5B2Ir6
_cell_volume  221.54876227503604
_cell_formula_units_Z  1
loop_
  _symmetry_equiv_pos_site_id
 _symmetry_equiv_pos_as_xyz
 1  'x, y, z'
loop_
 _atom_site_type_symbol
 _atom_site_label
 _atom_site_symmetry_multiplicity
 _atom_site_fract_x
 _atom_site_fract_y
 _atom_site_fract_z
 _atom_site_fract_occupancy
 B  B1  1  0.00000  0.00000  0.50000  1
 B  B2  1  0.00000  0.00000  0.00000  1
 Ir  Ir1  1  0.74679  0.00000  0.25441  1
 Ir  Ir2  1  0.74679  0.00000  0.74559  1
 Ir  Ir3  1  0.25321  0.25321  0.74559  1
 Ir  Ir4  1  0.00000  0.74679  0.25441  1
 Ir  Ir5  1  0.00000  0.74679  0.74559  1
 Ir  Ir6  1  0.25321  0.25321  0.25441  1
 Sn  Sn1  1  0.66667  0.33333  0.50000  1
 Sn  Sn2  1  0.40387  -0.00000  0.00000  1
 Sn  Sn3  1  0.59613  0.59613  0.00000  1
 Sn  Sn4  1  -0.00000  0.40387  0.00000  1
 Sn  Sn5  1  0.33333  0.66667  0.50000  1
