CIF file written using JARVIS-Tools package.
data_Na3CoO3
_symmetry_space_group_name_H-M  'P2_1/c'
_cell_length_a       6.07756
_cell_length_b       7.63006
_cell_length_c       10.7193
_cell_angle_alpha    90
_cell_angle_beta     123.908
_cell_angle_gamma    90

_symmetry_Int_Tables_number  14
_chemical_formula_structural  Na3CoO3
_chemical_formula_sum  Na2Co4O2
_cell_volume  412.542599083857
_cell_formula_units_Z  4
loop_
  _symmetry_equiv_pos_site_id
 _symmetry_equiv_pos_as_xyz
 1  'x, y, z'
loop_
 _atom_site_type_symbol
 _atom_site_label
 _atom_site_symmetry_multiplicity
 _atom_site_fract_x
 _atom_site_fract_y
 _atom_site_fract_z
 _atom_site_fract_occupancy
 Co  Co1  1  0.28821  0.85070  0.85560  1
 Co  Co2  1  0.28821  0.64930  0.35560  1
 Co  Co3  1  0.71179  0.14930  0.14440  1
 Co  Co4  1  0.71179  0.35070  0.64440  1
 Na  Na1  1  0.39015  0.26904  0.27296  1
 Na  Na2  1  0.03324  0.15718  0.92832  1
 Na  Na3  1  0.79824  0.03295  0.54335  1
 Na  Na4  1  0.20176  0.53295  0.95665  1
 Na  Na5  1  0.60985  0.73096  0.72704  1
 Na  Na6  1  0.96676  0.65718  0.57168  1
 Na  Na7  1  0.03324  0.34282  0.42832  1
 Na  Na8  1  0.39015  0.23096  0.77296  1
 Na  Na9  1  0.79824  0.46705  0.04335  1
 Na  Na10  1  0.20176  0.96705  0.45665  1
 Na  Na11  1  0.96676  0.84282  0.07168  1
 Na  Na12  1  0.60985  0.76904  0.22704  1
 O  O1  1  0.01834  0.86192  0.87661  1
 O  O2  1  0.98166  0.36192  0.62339  1
 O  O3  1  0.43735  0.27802  0.00919  1
 O  O4  1  0.75057  0.07781  0.31421  1
 O  O5  1  0.24943  0.92219  0.68579  1
 O  O6  1  0.98166  0.13808  0.12339  1
 O  O7  1  0.01834  0.63808  0.37661  1
 O  O8  1  0.43735  0.22198  0.50919  1
 O  O9  1  0.75057  0.42219  0.81421  1
 O  O10  1  0.56265  0.77802  0.49081  1
 O  O11  1  0.56265  0.72198  0.99081  1
 O  O12  1  0.24943  0.57781  0.18579  1
