CIF file written using JARVIS-Tools package.
data_K2ZnO2
_symmetry_space_group_name_H-M  'Ibam'
_cell_length_a       5.43981
_cell_length_b       6.00059
_cell_length_c       6.60132
_cell_angle_alpha    117.033
_cell_angle_beta     114.332
_cell_angle_gamma    90

_symmetry_Int_Tables_number  72
_chemical_formula_structural  K2ZnO2
_chemical_formula_sum  K4Zn2O4
_cell_volume  170.17094224407668
_cell_formula_units_Z  2
loop_
  _symmetry_equiv_pos_site_id
 _symmetry_equiv_pos_as_xyz
 1  'x, y, z'
loop_
 _atom_site_type_symbol
 _atom_site_label
 _atom_site_symmetry_multiplicity
 _atom_site_fract_x
 _atom_site_fract_y
 _atom_site_fract_z
 _atom_site_fract_occupancy
 K  K1  1  0.34739  0.21355  0.69477  1
 K  K2  1  0.65261  0.78645  0.30523  1
 K  K3  1  0.84739  0.48122  0.69477  1
 K  K4  1  0.15261  0.51878  0.30523  1
 O  O1  1  0.40379  0.71556  0.80759  1
 O  O2  1  0.59621  0.28444  0.19241  1
 O  O3  1  0.09621  0.90797  0.19241  1
 O  O4  1  0.90379  0.09203  0.80759  1
 Zn  Zn1  1  0.75000  -0.00000  -0.00000  1
 Zn  Zn2  1  0.25000  -0.00000  0.00000  1
