CIF file written using JARVIS-Tools package.
data_CaNi2O4
_symmetry_space_group_name_H-M  'Imma'
_cell_length_a       6.04993
_cell_length_b       6.04993
_cell_length_c       6.05158
_cell_angle_alpha    59.991
_cell_angle_beta     59.991
_cell_angle_gamma    61.3391

_symmetry_Int_Tables_number  74
_chemical_formula_structural  CaNi2O4
_chemical_formula_sum  Ca2Ni4O8
_cell_volume  158.12398012795285
_cell_formula_units_Z  2
loop_
  _symmetry_equiv_pos_site_id
 _symmetry_equiv_pos_as_xyz
 1  'x, y, z'
loop_
 _atom_site_type_symbol
 _atom_site_label
 _atom_site_symmetry_multiplicity
 _atom_site_fract_x
 _atom_site_fract_y
 _atom_site_fract_z
 _atom_site_fract_occupancy
 Ca  Ca1  1  0.12500  0.62500  0.62500  1
 Ca  Ca2  1  0.62500  0.12500  0.62500  1
 Ni  Ni1  1  0.99198  0.99198  0.00802  1
 Ni  Ni2  1  0.25802  0.25802  0.24198  1
 Ni  Ni3  1  0.62500  0.62500  0.12500  1
 Ni  Ni4  1  0.62500  0.62500  0.62500  1
 O  O1  1  0.39940  0.39940  0.33820  1
 O  O2  1  0.41451  0.87185  0.35682  1
 O  O3  1  0.39940  0.39940  0.86299  1
 O  O4  1  0.87185  0.41451  0.35682  1
 O  O5  1  0.37815  0.83549  0.89318  1
 O  O6  1  0.83549  0.37815  0.89318  1
 O  O7  1  0.85060  0.85060  0.38701  1
 O  O8  1  0.85060  0.85060  0.91180  1
