CIF file written using JARVIS-Tools package.
data_NaV2S4
_symmetry_space_group_name_H-M  'Pm'
_cell_length_a       5.84996
_cell_length_b       3.39301
_cell_length_c       7.00507
_cell_angle_alpha    90
_cell_angle_beta     100.305
_cell_angle_gamma    90

_symmetry_Int_Tables_number  6
_chemical_formula_structural  NaV2S4
_chemical_formula_sum  NaV2S4
_cell_volume  136.80035577570797
_cell_formula_units_Z  1
loop_
  _symmetry_equiv_pos_site_id
 _symmetry_equiv_pos_as_xyz
 1  'x, y, z'
loop_
 _atom_site_type_symbol
 _atom_site_label
 _atom_site_symmetry_multiplicity
 _atom_site_fract_x
 _atom_site_fract_y
 _atom_site_fract_z
 _atom_site_fract_occupancy
 Na  Na1  1  0.65530  0.50000  0.49896  1
 S  S1  1  0.62745  0.00000  0.80589  1
 S  S2  1  0.37957  0.00000  0.20928  1
 S  S3  1  0.11851  0.50000  0.77445  1
 S  S4  1  0.87229  0.50000  0.17794  1
 V  V1  1  0.02654  0.00000  0.99367  1
 V  V2  1  0.47033  0.50000  0.98981  1
