CIF file written using JARVIS-Tools package.
data_Rb2Li2GeO4
_symmetry_space_group_name_H-M  'P-1'
_cell_length_a       5.63412
_cell_length_b       5.74557
_cell_length_c       8.82529
_cell_angle_alpha    83.4611
_cell_angle_beta     73.8781
_cell_angle_gamma    85.2297

_symmetry_Int_Tables_number  2
_chemical_formula_structural  Rb2Li2GeO4
_chemical_formula_sum  Rb4Li4Ge2O8
_cell_volume  272.2672141543115
_cell_formula_units_Z  2
loop_
  _symmetry_equiv_pos_site_id
 _symmetry_equiv_pos_as_xyz
 1  'x, y, z'
loop_
 _atom_site_type_symbol
 _atom_site_label
 _atom_site_symmetry_multiplicity
 _atom_site_fract_x
 _atom_site_fract_y
 _atom_site_fract_z
 _atom_site_fract_occupancy
 Ge  Ge1  1  0.85549  0.31506  0.72504  1
 Ge  Ge2  1  0.14451  0.68494  0.27496  1
 Li  Li1  1  0.07269  0.81750  0.56081  1
 Li  Li2  1  0.92731  0.18250  0.43919  1
 Li  Li3  1  0.30542  0.41077  0.57957  1
 Li  Li4  1  0.69458  0.58923  0.42043  1
 O  O1  1  0.72912  0.20204  0.92286  1
 O  O2  1  0.27088  0.79796  0.07714  1
 O  O3  1  0.10247  0.13294  0.60607  1
 O  O4  1  0.89753  0.86706  0.39393  1
 O  O5  1  0.98474  0.42571  0.27745  1
 O  O6  1  0.63028  0.35909  0.61125  1
 O  O7  1  0.36972  0.64091  0.38875  1
 O  O8  1  0.01526  0.57429  0.72255  1
 Rb  Rb1  1  0.21532  0.27737  0.97744  1
 Rb  Rb2  1  0.78468  0.72263  0.02256  1
 Rb  Rb3  1  0.52910  0.15115  0.27082  1
 Rb  Rb4  1  0.47090  0.84885  0.72918  1
