CIF file written using JARVIS-Tools package.
data_Mn3O4F2
_symmetry_space_group_name_H-M  'P-1'
_cell_length_a       4.56448
_cell_length_b       5.49548
_cell_length_c       7.4514
_cell_angle_alpha    85.1958
_cell_angle_beta     89.6158
_cell_angle_gamma    90.0603

_symmetry_Int_Tables_number  2
_chemical_formula_structural  Mn3O4F2
_chemical_formula_sum  Mn6O8F4
_cell_volume  186.24984624830878
_cell_formula_units_Z  2
loop_
  _symmetry_equiv_pos_site_id
 _symmetry_equiv_pos_as_xyz
 1  'x, y, z'
loop_
 _atom_site_type_symbol
 _atom_site_label
 _atom_site_symmetry_multiplicity
 _atom_site_fract_x
 _atom_site_fract_y
 _atom_site_fract_z
 _atom_site_fract_occupancy
 F  F1  1  0.19459  0.62896  0.56086  1
 F  F2  1  0.80541  0.37104  0.43914  1
 F  F3  1  0.29731  0.80340  0.88262  1
 F  F4  1  0.70269  0.19660  0.11738  1
 Mn  Mn1  1  0.00000  0.00000  0.00000  1
 Mn  Mn2  1  0.50000  0.50000  -0.00000  1
 Mn  Mn3  1  0.00787  0.32590  0.68766  1
 Mn  Mn4  1  0.46200  0.15788  0.33993  1
 Mn  Mn5  1  0.53800  0.84212  0.66007  1
 Mn  Mn6  1  0.99213  0.67410  0.31234  1
 O  O1  1  0.19707  0.29364  0.90604  1
 O  O2  1  0.19615  0.95389  0.22362  1
 O  O3  1  0.30220  0.12717  0.56909  1
 O  O4  1  0.69541  0.54266  0.76953  1
 O  O5  1  0.80293  0.70636  0.09396  1
 O  O6  1  0.80385  0.04611  0.77638  1
 O  O7  1  0.69780  0.87283  0.43091  1
 O  O8  1  0.30459  0.45734  0.23047  1
