CIF file written using JARVIS-Tools package.
data_NaCdF3
_symmetry_space_group_name_H-M  'R3c'
_cell_length_a       6.0427
_cell_length_b       6.04269
_cell_length_c       6.04269
_cell_angle_alpha    57.1995
_cell_angle_beta     57.1995
_cell_angle_gamma    57.1995

_symmetry_Int_Tables_number  161
_chemical_formula_structural  NaCdF3
_chemical_formula_sum  Na2Cd2F6
_cell_volume  145.95392401518697
_cell_formula_units_Z  2
loop_
  _symmetry_equiv_pos_site_id
 _symmetry_equiv_pos_as_xyz
 1  'x, y, z'
loop_
 _atom_site_type_symbol
 _atom_site_label
 _atom_site_symmetry_multiplicity
 _atom_site_fract_x
 _atom_site_fract_y
 _atom_site_fract_z
 _atom_site_fract_occupancy
 Cd  Cd1  1  0.00303  0.00303  0.00303  1
 Cd  Cd2  1  0.50303  0.50303  0.50303  1
 F  F1  1  0.10949  0.39021  0.70221  1
 F  F2  1  0.39021  0.70221  0.10949  1
 F  F3  1  0.70221  0.10949  0.39021  1
 F  F4  1  0.20221  0.89021  0.60949  1
 F  F5  1  0.60949  0.20221  0.89021  1
 F  F6  1  0.89021  0.60949  0.20221  1
 Na  Na1  1  0.29106  0.29106  0.29106  1
 Na  Na2  1  0.79106  0.79106  0.79106  1
