CIF file written using JARVIS-Tools package.
data_SmIn2Rh
_symmetry_space_group_name_H-M  'Cmcm'
_cell_length_a       4.3591
_cell_length_b       5.56496
_cell_length_c       8.03144
_cell_angle_alpha    90
_cell_angle_beta     90
_cell_angle_gamma    113.058

_symmetry_Int_Tables_number  63
_chemical_formula_structural  SmIn2Rh
_chemical_formula_sum  Sm2In4Rh2
_cell_volume  179.26410240151228
_cell_formula_units_Z  2
loop_
  _symmetry_equiv_pos_site_id
 _symmetry_equiv_pos_as_xyz
 1  'x, y, z'
loop_
 _atom_site_type_symbol
 _atom_site_label
 _atom_site_symmetry_multiplicity
 _atom_site_fract_x
 _atom_site_fract_y
 _atom_site_fract_z
 _atom_site_fract_occupancy
 In  In1  1  0.35642  0.71283  0.54967  1
 In  In2  1  0.64358  0.28717  0.45033  1
 In  In3  1  0.35642  0.71283  0.95033  1
 In  In4  1  0.64358  0.28717  0.04967  1
 Rh  Rh1  1  0.78274  0.56548  0.75000  1
 Rh  Rh2  1  0.21726  0.43452  0.25000  1
 Sm  Sm1  1  0.93157  0.86313  0.25000  1
 Sm  Sm2  1  0.06843  0.13687  0.75000  1
