CIF file written using JARVIS-Tools package.
data_PdPb2
_symmetry_space_group_name_H-M  'I4/mcm'
_cell_length_a       5.76841
_cell_length_b       5.76841
_cell_length_c       5.76841
_cell_angle_alpha    105.25
_cell_angle_beta     105.25
_cell_angle_gamma    118.29

_symmetry_Int_Tables_number  140
_chemical_formula_structural  PdPb2
_chemical_formula_sum  Pd2Pb4
_cell_volume  145.09452666224158
_cell_formula_units_Z  2
loop_
  _symmetry_equiv_pos_site_id
 _symmetry_equiv_pos_as_xyz
 1  'x, y, z'
loop_
 _atom_site_type_symbol
 _atom_site_label
 _atom_site_symmetry_multiplicity
 _atom_site_fract_x
 _atom_site_fract_y
 _atom_site_fract_z
 _atom_site_fract_occupancy
 Pb  Pb1  1  0.83747  0.66253  0.50000  1
 Pb  Pb2  1  0.33747  0.83747  0.17495  1
 Pb  Pb3  1  0.16253  0.33747  0.50000  1
 Pb  Pb4  1  0.66253  0.16253  0.82505  1
 Pd  Pd1  1  0.75000  0.75000  -0.00000  1
 Pd  Pd2  1  0.25000  0.25000  0.00000  1
