CIF file written using JARVIS-Tools package.
data_NdTiGe
_symmetry_space_group_name_H-M  'P4/nmm'
_cell_length_a       4.13647
_cell_length_b       4.13647
_cell_length_c       7.83022
_cell_angle_alpha    90
_cell_angle_beta     90
_cell_angle_gamma    90

_symmetry_Int_Tables_number  129
_chemical_formula_structural  NdTiGe
_chemical_formula_sum  Nd2Ti2Ge2
_cell_volume  133.97815241734816
_cell_formula_units_Z  2
loop_
  _symmetry_equiv_pos_site_id
 _symmetry_equiv_pos_as_xyz
 1  'x, y, z'
loop_
 _atom_site_type_symbol
 _atom_site_label
 _atom_site_symmetry_multiplicity
 _atom_site_fract_x
 _atom_site_fract_y
 _atom_site_fract_z
 _atom_site_fract_occupancy
 Ge  Ge1  1  0.00000  0.50000  0.22620  1
 Ge  Ge2  1  0.50000  0.00000  0.77380  1
 Nd  Nd1  1  0.50000  0.00000  0.34785  1
 Nd  Nd2  1  0.00000  0.50000  0.65215  1
 Ti  Ti1  1  0.00000  0.00000  0.00000  1
 Ti  Ti2  1  0.50000  0.50000  0.00000  1
