CIF file written using JARVIS-Tools package.
data_TeMoS
_symmetry_space_group_name_H-M  'Pmma'
_cell_length_a       3.38286
_cell_length_b       13.6134
_cell_length_c       5.80024
_cell_angle_alpha    90
_cell_angle_beta     90
_cell_angle_gamma    90

_symmetry_Int_Tables_number  51
_chemical_formula_structural  TeMoS
_chemical_formula_sum  Te4Mo4S4
_cell_volume  267.11370519983745
_cell_formula_units_Z  4
loop_
  _symmetry_equiv_pos_site_id
 _symmetry_equiv_pos_as_xyz
 1  'x, y, z'
loop_
 _atom_site_type_symbol
 _atom_site_label
 _atom_site_symmetry_multiplicity
 _atom_site_fract_x
 _atom_site_fract_y
 _atom_site_fract_z
 _atom_site_fract_occupancy
 Mo  Mo1  1  0.00002  0.25000  0.36766  1
 Mo  Mo2  1  0.49998  0.75000  0.10360  1
 Mo  Mo3  1  0.50002  0.25000  0.89640  1
 Mo  Mo4  1  -0.00002  0.75000  0.63234  1
 S  S1  1  0.50002  0.13754  0.21716  1
 S  S2  1  0.50002  0.36246  0.21716  1
 S  S3  1  0.49998  0.63754  0.78284  1
 S  S4  1  0.49998  0.86246  0.78284  1
 Te  Te1  1  -0.00002  0.61291  0.28586  1
 Te  Te2  1  -0.00002  0.88709  0.28586  1
 Te  Te3  1  0.00002  0.11291  0.71414  1
 Te  Te4  1  0.00002  0.38709  0.71414  1
