CIF file written using JARVIS-Tools package.
data_NdInPd
_symmetry_space_group_name_H-M  'P-62m'
_cell_length_a       7.78273
_cell_length_b       7.78273
_cell_length_c       4.01209
_cell_angle_alpha    90
_cell_angle_beta     90
_cell_angle_gamma    120

_symmetry_Int_Tables_number  189
_chemical_formula_structural  NdInPd
_chemical_formula_sum  Nd3In3Pd3
_cell_volume  210.45750276463326
_cell_formula_units_Z  3
loop_
  _symmetry_equiv_pos_site_id
 _symmetry_equiv_pos_as_xyz
 1  'x, y, z'
loop_
 _atom_site_type_symbol
 _atom_site_label
 _atom_site_symmetry_multiplicity
 _atom_site_fract_x
 _atom_site_fract_y
 _atom_site_fract_z
 _atom_site_fract_occupancy
 In  In1  1  0.74589  0.74589  0.50000  1
 In  In2  1  0.00000  0.25411  0.50000  1
 In  In3  1  0.25411  0.00000  0.50000  1
 Nd  Nd1  1  -0.00000  0.59013  0.00000  1
 Nd  Nd2  1  0.40987  0.40987  0.00000  1
 Nd  Nd3  1  0.59013  -0.00000  0.00000  1
 Pd  Pd1  1  0.33333  0.66667  0.50000  1
 Pd  Pd2  1  0.00000  0.00000  0.00000  1
 Pd  Pd3  1  0.66667  0.33333  0.50000  1
