CIF file written using JARVIS-Tools package.
data_CuCl
_symmetry_space_group_name_H-M  'Pa-3'
_cell_length_a       6.57382
_cell_length_b       6.57382
_cell_length_c       6.57382
_cell_angle_alpha    90
_cell_angle_beta     90
_cell_angle_gamma    90

_symmetry_Int_Tables_number  205
_chemical_formula_structural  CuCl
_chemical_formula_sum  Cu8Cl8
_cell_volume  284.08783432383393
_cell_formula_units_Z  8
loop_
  _symmetry_equiv_pos_site_id
 _symmetry_equiv_pos_as_xyz
 1  'x, y, z'
loop_
 _atom_site_type_symbol
 _atom_site_label
 _atom_site_symmetry_multiplicity
 _atom_site_fract_x
 _atom_site_fract_y
 _atom_site_fract_z
 _atom_site_fract_occupancy
 Cl  Cl1  1  0.15561  0.34439  0.65561  1
 Cl  Cl2  1  0.34439  0.65561  0.15561  1
 Cl  Cl3  1  0.65561  0.15561  0.34439  1
 Cl  Cl4  1  0.84439  0.84439  0.84439  1
 Cl  Cl5  1  0.84439  0.65561  0.34439  1
 Cl  Cl6  1  0.65561  0.34439  0.84439  1
 Cl  Cl7  1  0.34439  0.84439  0.65561  1
 Cl  Cl8  1  0.15561  0.15561  0.15561  1
 Cu  Cu1  1  0.61894  0.88106  0.11894  1
 Cu  Cu2  1  0.88106  0.11894  0.61894  1
 Cu  Cu3  1  0.11894  0.61894  0.88106  1
 Cu  Cu4  1  0.38106  0.38106  0.38106  1
 Cu  Cu5  1  0.38106  0.11894  0.88106  1
 Cu  Cu6  1  0.11894  0.88106  0.38106  1
 Cu  Cu7  1  0.88106  0.38106  0.11894  1
 Cu  Cu8  1  0.61894  0.61894  0.61894  1
