CIF file written using JARVIS-Tools package.
data_Ca3TeO6
_symmetry_space_group_name_H-M  'P2_1/c'
_cell_length_a       5.60033
_cell_length_b       5.85253
_cell_length_c       9.79612
_cell_angle_alpha    90
_cell_angle_beta     124.501
_cell_angle_gamma    90

_symmetry_Int_Tables_number  14
_chemical_formula_structural  Ca3TeO6
_chemical_formula_sum  Ca6Te2O2
_cell_volume  264.6070819300028
_cell_formula_units_Z  2
loop_
  _symmetry_equiv_pos_site_id
 _symmetry_equiv_pos_as_xyz
 1  'x, y, z'
loop_
 _atom_site_type_symbol
 _atom_site_label
 _atom_site_symmetry_multiplicity
 _atom_site_fract_x
 _atom_site_fract_y
 _atom_site_fract_z
 _atom_site_fract_occupancy
 Ca  Ca1  1  0.72855  0.55559  0.74500  1
 Ca  Ca2  1  0.27145  0.05559  0.75500  1
 Ca  Ca3  1  0.27145  0.44441  0.25500  1
 Ca  Ca4  1  0.72855  0.94441  0.24500  1
 Ca  Ca5  1  0.50000  0.50000  -0.00000  1
 Ca  Ca6  1  0.50000  0.00000  0.50000  1
 O  O1  1  0.75858  0.22401  0.42891  1
 O  O2  1  0.88988  0.94422  0.77409  1
 O  O3  1  0.24142  0.77599  0.57109  1
 O  O4  1  0.75858  0.27599  0.92891  1
 O  O5  1  0.24142  0.72401  0.07109  1
 O  O6  1  0.66582  0.82123  0.94932  1
 O  O7  1  0.11012  0.05578  0.22591  1
 O  O8  1  0.33418  0.17877  0.05068  1
 O  O9  1  0.33418  0.32123  0.55068  1
 O  O10  1  0.88988  0.55578  0.27409  1
 O  O11  1  0.66582  0.67877  0.44932  1
 O  O12  1  0.11012  0.44422  0.72591  1
 Te  Te1  1  0.00000  0.00000  0.00000  1
 Te  Te2  1  0.00000  0.50000  0.50000  1
