CIF file written using JARVIS-Tools package.
data_K2Al2Sb2O7
_symmetry_space_group_name_H-M  'P-3m1'
_cell_length_a       5.70034
_cell_length_b       5.70034
_cell_length_c       8.0283
_cell_angle_alpha    90
_cell_angle_beta     90
_cell_angle_gamma    120

_symmetry_Int_Tables_number  164
_chemical_formula_structural  K2Al2Sb2O7
_chemical_formula_sum  K2Al2Sb2O7
_cell_volume  225.92031625434362
_cell_formula_units_Z  1
loop_
  _symmetry_equiv_pos_site_id
 _symmetry_equiv_pos_as_xyz
 1  'x, y, z'
loop_
 _atom_site_type_symbol
 _atom_site_label
 _atom_site_symmetry_multiplicity
 _atom_site_fract_x
 _atom_site_fract_y
 _atom_site_fract_z
 _atom_site_fract_occupancy
 Al  Al1  1  0.00000  0.00000  0.21575  1
 Al  Al2  1  0.00000  0.00000  0.78425  1
 K  K1  1  0.33333  0.66667  0.40916  1
 K  K2  1  0.66667  0.33333  0.59084  1
 O  O1  1  0.33758  0.16879  0.29429  1
 O  O2  1  0.66242  0.83121  0.70571  1
 O  O3  1  0.16879  0.33758  0.70571  1
 O  O4  1  0.83121  0.16879  0.29429  1
 O  O5  1  0.00000  0.00000  0.00000  1
 O  O6  1  0.83121  0.66242  0.29429  1
 O  O7  1  0.16879  0.83121  0.70571  1
 Sb  Sb1  1  0.33333  0.66667  0.84515  1
 Sb  Sb2  1  0.66667  0.33333  0.15485  1
