CIF file written using JARVIS-Tools package.
data_Li14P2N6O3
_symmetry_space_group_name_H-M  'P-3'
_cell_length_a       5.64459
_cell_length_b       5.64459
_cell_length_c       7.97332
_cell_angle_alpha    90
_cell_angle_beta     90
_cell_angle_gamma    120

_symmetry_Int_Tables_number  147
_chemical_formula_structural  Li14P2N6O3
_chemical_formula_sum  Li4P2N6O3
_cell_volume  220.00622296836556
_cell_formula_units_Z  1
loop_
  _symmetry_equiv_pos_site_id
 _symmetry_equiv_pos_as_xyz
 1  'x, y, z'
loop_
 _atom_site_type_symbol
 _atom_site_label
 _atom_site_symmetry_multiplicity
 _atom_site_fract_x
 _atom_site_fract_y
 _atom_site_fract_z
 _atom_site_fract_occupancy
 Li  Li1  1  0.37768  0.08219  0.09106  1
 Li  Li2  1  0.04811  0.35380  0.58925  1
 Li  Li3  1  0.91781  0.29550  0.09106  1
 Li  Li4  1  0.62232  0.91781  0.90894  1
 Li  Li5  1  0.29550  0.37768  0.90894  1
 Li  Li6  1  0.08219  0.70450  0.90894  1
 Li  Li7  1  0.00000  0.00000  0.24941  1
 Li  Li8  1  0.70450  0.62232  0.09106  1
 Li  Li9  1  0.64620  0.69431  0.58925  1
 Li  Li10  1  0.95189  0.64620  0.41075  1
 Li  Li11  1  0.69431  0.04811  0.41075  1
 Li  Li12  1  0.35380  0.30569  0.41075  1
 Li  Li13  1  0.00000  0.00000  0.75059  1
 Li  Li14  1  0.30569  0.95189  0.58925  1
 N  N1  1  0.93118  0.30640  0.82535  1
 N  N2  1  0.69360  0.62478  0.82535  1
 N  N3  1  0.37522  0.06882  0.82535  1
 N  N4  1  0.62478  0.93118  0.17465  1
 N  N5  1  0.06882  0.69360  0.17465  1
 N  N6  1  0.30640  0.37522  0.17465  1
 O  O1  1  0.66667  0.33333  0.55063  1
 O  O2  1  0.33333  0.66667  0.44937  1
 O  O3  1  0.00000  0.00000  0.50000  1
 P  P1  1  0.33333  0.66667  0.22716  1
 P  P2  1  0.66667  0.33333  0.77284  1
