CIF file written using JARVIS-Tools package.
data_CeCoC2
_symmetry_space_group_name_H-M  'Cc'
_cell_length_a       3.73398
_cell_length_b       3.73398
_cell_length_c       7.41192
_cell_angle_alpha    82.3677
_cell_angle_beta     82.3677
_cell_angle_gamma    90.0081

_symmetry_Int_Tables_number  9
_chemical_formula_structural  CeCoC2
_chemical_formula_sum  Ce2Co2C4
_cell_volume  101.50189809678878
_cell_formula_units_Z  2
loop_
  _symmetry_equiv_pos_site_id
 _symmetry_equiv_pos_as_xyz
 1  'x, y, z'
loop_
 _atom_site_type_symbol
 _atom_site_label
 _atom_site_symmetry_multiplicity
 _atom_site_fract_x
 _atom_site_fract_y
 _atom_site_fract_z
 _atom_site_fract_occupancy
 C  C1  1  0.55674  0.40574  0.57242  1
 C  C2  1  0.40574  0.55674  0.07242  1
 C  C3  1  0.50921  0.14336  0.72509  1
 C  C4  1  0.14336  0.50921  0.22509  1
 Ce  Ce1  1  0.93375  0.06941  -0.00001  1
 Ce  Ce2  1  0.06941  0.93375  0.49999  1
 Co  Co1  1  0.62631  0.48847  0.30560  1
 Co  Co2  1  0.48847  0.62631  0.80560  1
