CIF file written using JARVIS-Tools package.
data_NbW3Se8
_symmetry_space_group_name_H-M  'Pmm2'
_cell_length_a       3.36955
_cell_length_b       13.0881
_cell_length_c       5.8393
_cell_angle_alpha    90
_cell_angle_beta     90.0002
_cell_angle_gamma    90

_symmetry_Int_Tables_number  25
_chemical_formula_structural  NbW3Se8
_chemical_formula_sum  NbW3Se8
_cell_volume  257.5191910823681
_cell_formula_units_Z  1
loop_
  _symmetry_equiv_pos_site_id
 _symmetry_equiv_pos_as_xyz
 1  'x, y, z'
loop_
 _atom_site_type_symbol
 _atom_site_label
 _atom_site_symmetry_multiplicity
 _atom_site_fract_x
 _atom_site_fract_y
 _atom_site_fract_z
 _atom_site_fract_occupancy
 Nb  Nb1  1  0.00007  0.75000  0.67446  1
 Se  Se1  1  0.00007  0.62317  0.32904  1
 Se  Se2  1  0.49993  0.12269  0.16672  1
 Se  Se3  1  0.49993  0.37731  0.16672  1
 Se  Se4  1  0.00007  0.87683  0.32904  1
 Se  Se5  1  0.50007  0.61813  0.83737  1
 Se  Se6  1  0.99993  0.12274  0.66666  1
 Se  Se7  1  0.99993  0.37726  0.66666  1
 Se  Se8  1  0.50007  0.88187  0.83737  1
 W  W1  1  0.99993  0.25000  0.33331  1
 W  W2  1  0.50007  0.75000  0.15920  1
 W  W3  1  0.49993  0.25000  0.83347  1
