CIF file written using JARVIS-Tools package.
data_Li5AlO4
_symmetry_space_group_name_H-M  'Pmmn'
_cell_length_a       4.60688
_cell_length_b       6.30102
_cell_length_c       6.42655
_cell_angle_alpha    90
_cell_angle_beta     90
_cell_angle_gamma    90

_symmetry_Int_Tables_number  59
_chemical_formula_structural  Li5AlO4
_chemical_formula_sum  Li0Al2O8
_cell_volume  186.5503802497855
_cell_formula_units_Z  2
loop_
  _symmetry_equiv_pos_site_id
 _symmetry_equiv_pos_as_xyz
 1  'x, y, z'
loop_
 _atom_site_type_symbol
 _atom_site_label
 _atom_site_symmetry_multiplicity
 _atom_site_fract_x
 _atom_site_fract_y
 _atom_site_fract_z
 _atom_site_fract_occupancy
 Al  Al1  1  0.77430  0.75000  0.75000  1
 Al  Al2  1  0.22570  0.25000  0.25000  1
 Li  Li1  1  0.74598  0.48893  0.44689  1
 Li  Li2  1  0.74598  0.01107  0.05311  1
 Li  Li3  1  0.25402  0.98893  0.55311  1
 Li  Li4  1  0.25402  0.51107  0.94689  1
 Li  Li5  1  0.25402  0.51107  0.55311  1
 Li  Li6  1  0.25402  0.98893  0.94689  1
 Li  Li7  1  0.74598  0.01107  0.44689  1
 Li  Li8  1  0.74598  0.48893  0.05311  1
 Li  Li9  1  0.79172  0.25000  0.75000  1
 Li  Li10  1  0.20828  0.75000  0.25000  1
 O  O1  1  0.98534  0.75000  0.98340  1
 O  O2  1  0.01466  0.25000  0.48340  1
 O  O3  1  0.01466  0.25000  0.01660  1
 O  O4  1  0.56691  0.98767  0.75000  1
 O  O5  1  0.56691  0.51233  0.75000  1
 O  O6  1  0.43309  0.48767  0.25000  1
 O  O7  1  0.43309  0.01233  0.25000  1
 O  O8  1  0.98534  0.75000  0.51660  1
