data_image0
_chemical_formula_structural       Bi2Pb2Se5
_chemical_formula_sum              "Bi2 Pb2 Se5"
_cell_length_a       4.25745
_cell_length_b       4.25901
_cell_length_c       17.0687
_cell_angle_alpha    90
_cell_angle_beta     89.9823
_cell_angle_gamma    120.012

_space_group_name_H-M_alt    "P 1"
_space_group_IT_number       1

loop_
  _space_group_symop_operation_xyz
  'x, y, z'

loop_
  _atom_site_type_symbol
  _atom_site_label
  _atom_site_symmetry_multiplicity
  _atom_site_fract_x
  _atom_site_fract_y
  _atom_site_fract_z
  _atom_site_occupancy
  Bi  Bi1       1.0  0.00009  0.00004  0.33200  1.0000
  Bi  Bi2       1.0  0.00000  1.00000  0.66800  1.0000
  Pb  Pb1       1.0  0.33300  0.66700  0.11000  1.0000
  Pb  Pb2       1.0  0.66700  0.33300  0.89000  1.0000
  Se  Se1       1.0  0.00000  0.00000  0.00000  1.0000
  Se  Se2       1.0  0.66700  0.33300  0.21900  1.0000
  Se  Se3       1.0  0.33300  0.66700  0.42100  1.0000
  Se  Se4       1.0  0.66700  0.33300  0.57900  1.0000
  Se  Se5       1.0  0.33300  0.66700  0.78100  1.0000
