CIF file written using JARVIS-Tools package.
data_H4IN
_symmetry_space_group_name_H-M  'P4/nmm'
_cell_length_a       6.09298
_cell_length_b       6.09298
_cell_length_c       4.36155
_cell_angle_alpha    90
_cell_angle_beta     90
_cell_angle_gamma    90

_symmetry_Int_Tables_number  129
_chemical_formula_structural  H4IN
_chemical_formula_sum  H8I2N2
_cell_volume  161.92035816432343
_cell_formula_units_Z  2
loop_
  _symmetry_equiv_pos_site_id
 _symmetry_equiv_pos_as_xyz
 1  'x, y, z'
loop_
 _atom_site_type_symbol
 _atom_site_label
 _atom_site_symmetry_multiplicity
 _atom_site_fract_x
 _atom_site_fract_y
 _atom_site_fract_z
 _atom_site_fract_occupancy
 H  H1  1  0.50000  0.35965  0.13803  1
 H  H2  1  0.50000  0.64035  0.13803  1
 H  H3  1  0.00000  0.85965  0.86197  1
 H  H4  1  0.00000  0.14035  0.86197  1
 H  H5  1  0.35965  0.50000  0.86197  1
 H  H6  1  0.64035  0.50000  0.86197  1
 H  H7  1  0.85965  0.00000  0.13803  1
 H  H8  1  0.14035  0.00000  0.13803  1
 I  I1  1  0.50000  0.00000  0.46136  1
 I  I2  1  0.00000  0.50000  0.53864  1
 N  N1  1  0.50000  0.50000  0.00000  1
 N  N2  1  0.00000  0.00000  0.00000  1
