CIF file written using JARVIS-Tools package.
data_TbZn2
_symmetry_space_group_name_H-M  'Imma'
_cell_length_a       4.47243
_cell_length_b       5.65577
_cell_length_c       5.65576
_cell_angle_alpha    77.8075
_cell_angle_beta     66.7099
_cell_angle_gamma    66.7099

_symmetry_Int_Tables_number  74
_chemical_formula_structural  TbZn2
_chemical_formula_sum  Tb2Zn4
_cell_volume  120.4418849585546
_cell_formula_units_Z  2
loop_
  _symmetry_equiv_pos_site_id
 _symmetry_equiv_pos_as_xyz
 1  'x, y, z'
loop_
 _atom_site_type_symbol
 _atom_site_label
 _atom_site_symmetry_multiplicity
 _atom_site_fract_x
 _atom_site_fract_y
 _atom_site_fract_z
 _atom_site_fract_occupancy
 Tb  Tb1  1  0.52653  0.72347  0.22347  1
 Tb  Tb2  1  0.47347  0.27653  0.77653  1
 Zn  Zn1  1  0.83399  0.70601  0.62601  1
 Zn  Zn2  1  0.16601  0.29399  0.37399  1
 Zn  Zn3  1  0.83399  0.12601  0.20601  1
 Zn  Zn4  1  0.16601  0.87399  0.79399  1
