CIF file written using JARVIS-Tools package.
data_YbLiPb
_symmetry_space_group_name_H-M  'P-6m2'
_cell_length_a       4.88822
_cell_length_b       4.88822
_cell_length_c       10.7514
_cell_angle_alpha    90
_cell_angle_beta     90
_cell_angle_gamma    120

_symmetry_Int_Tables_number  187
_chemical_formula_structural  YbLiPb
_chemical_formula_sum  Yb3Li3Pb3
_cell_volume  222.4817858348049
_cell_formula_units_Z  3
loop_
  _symmetry_equiv_pos_site_id
 _symmetry_equiv_pos_as_xyz
 1  'x, y, z'
loop_
 _atom_site_type_symbol
 _atom_site_label
 _atom_site_symmetry_multiplicity
 _atom_site_fract_x
 _atom_site_fract_y
 _atom_site_fract_z
 _atom_site_fract_occupancy
 Li  Li1  1  0.33333  0.66667  0.19442  1
 Li  Li2  1  0.66667  0.33333  0.50000  1
 Li  Li3  1  0.33333  0.66667  0.80558  1
 Pb  Pb1  1  0.66667  0.33333  0.84307  1
 Pb  Pb2  1  0.66667  0.33333  0.15693  1
 Pb  Pb3  1  0.33333  0.66667  0.50000  1
 Yb  Yb1  1  0.00000  0.00000  0.66666  1
 Yb  Yb2  1  0.00000  0.00000  0.33334  1
 Yb  Yb3  1  0.00000  0.00000  0.00000  1
