CIF file written using JARVIS-Tools package.
data_MoO2
_symmetry_space_group_name_H-M  'Imma'
_cell_length_a       6.14672
_cell_length_b       6.14672
_cell_length_c       5.55401
_cell_angle_alpha    63.1417
_cell_angle_beta     63.1417
_cell_angle_gamma    60.5235

_symmetry_Int_Tables_number  74
_chemical_formula_structural  MoO2
_chemical_formula_sum  Mo4O8
_cell_volume  155.6972396495646
_cell_formula_units_Z  4
loop_
  _symmetry_equiv_pos_site_id
 _symmetry_equiv_pos_as_xyz
 1  'x, y, z'
loop_
 _atom_site_type_symbol
 _atom_site_label
 _atom_site_symmetry_multiplicity
 _atom_site_fract_x
 _atom_site_fract_y
 _atom_site_fract_z
 _atom_site_fract_occupancy
 Mo  Mo1  1  0.98221  0.98221  0.01779  1
 Mo  Mo2  1  0.26779  0.26779  0.23221  1
 Mo  Mo3  1  0.62500  0.62500  0.12500  1
 Mo  Mo4  1  0.62500  0.62500  0.62500  1
 O  O1  1  0.40383  0.40383  0.33167  1
 O  O2  1  0.38491  0.89386  0.36062  1
 O  O3  1  0.40383  0.40383  0.86067  1
 O  O4  1  0.89386  0.38491  0.36062  1
 O  O5  1  0.35614  0.86509  0.88938  1
 O  O6  1  0.86509  0.35614  0.88938  1
 O  O7  1  0.84617  0.84617  0.38933  1
 O  O8  1  0.84617  0.84617  0.91833  1
