CIF file written using JARVIS-Tools package.
data_CaIn
_symmetry_space_group_name_H-M  'Pm-3m'
_cell_length_a       6.63504
_cell_length_b       6.63504
_cell_length_c       6.63504
_cell_angle_alpha    109.4
_cell_angle_beta     109.507
_cell_angle_gamma    109.507

_symmetry_Int_Tables_number  221
_chemical_formula_structural  CaIn
_chemical_formula_sum  Ca4In4
_cell_volume  224.8578582259632
_cell_formula_units_Z  4
loop_
  _symmetry_equiv_pos_site_id
 _symmetry_equiv_pos_as_xyz
 1  'x, y, z'
loop_
 _atom_site_type_symbol
 _atom_site_label
 _atom_site_symmetry_multiplicity
 _atom_site_fract_x
 _atom_site_fract_y
 _atom_site_fract_z
 _atom_site_fract_occupancy
 Ca  Ca1  1  0.50000  0.75000  0.25000  1
 Ca  Ca2  1  0.50000  0.25000  0.75000  1
 Ca  Ca3  1  0.00000  0.75000  0.75000  1
 Ca  Ca4  1  -0.00000  0.25000  0.25000  1
 In  In1  1  0.50004  0.75002  0.75002  1
 In  In2  1  0.00000  0.75002  0.24998  1
 In  In3  1  -0.00000  0.24998  0.75002  1
 In  In4  1  0.49996  0.24998  0.24998  1
