CIF file written using JARVIS-Tools package.
data_Li2CrO3
_symmetry_space_group_name_H-M  'C2/c'
_cell_length_a       4.92452
_cell_length_b       4.92452
_cell_length_c       4.96252
_cell_angle_alpha    78.5538
_cell_angle_beta     101.446
_cell_angle_gamma    62.4229

_symmetry_Int_Tables_number  15
_chemical_formula_structural  Li2CrO3
_chemical_formula_sum  Li4Cr2O6
_cell_volume  98.54086100000167
_cell_formula_units_Z  2
loop_
  _symmetry_equiv_pos_site_id
 _symmetry_equiv_pos_as_xyz
 1  'x, y, z'
loop_
 _atom_site_type_symbol
 _atom_site_label
 _atom_site_symmetry_multiplicity
 _atom_site_fract_x
 _atom_site_fract_y
 _atom_site_fract_z
 _atom_site_fract_occupancy
 Cr  Cr1  1  0.90051  0.91753  0.49123  1
 Cr  Cr2  1  0.08247  0.09949  0.99123  1
 Li  Li1  1  0.24615  0.26318  0.49130  1
 Li  Li2  1  0.57233  0.58976  0.49155  1
 Li  Li3  1  0.41024  0.42767  0.99155  1
 Li  Li4  1  0.73682  0.75385  0.99130  1
 O  O1  1  0.28441  0.86176  0.75184  1
 O  O2  1  0.13824  0.71559  0.25184  1
 O  O3  1  0.99150  0.50851  0.74127  1
 O  O4  1  0.69867  0.15521  0.73060  1
 O  O5  1  0.49149  0.00850  0.24127  1
 O  O6  1  0.84479  0.30133  0.23060  1
