CIF file written using JARVIS-Tools package.
data_LiFe2O2F3
_symmetry_space_group_name_H-M  'Cmcm'
_cell_length_a       3.74918
_cell_length_b       5.11599
_cell_length_c       10.3104
_cell_angle_alpha    90
_cell_angle_beta     90
_cell_angle_gamma    111.495

_symmetry_Int_Tables_number  63
_chemical_formula_structural  LiFe2O2F3
_chemical_formula_sum  Li2Fe4O4F6
_cell_volume  184.00785602991115
_cell_formula_units_Z  2
loop_
  _symmetry_equiv_pos_site_id
 _symmetry_equiv_pos_as_xyz
 1  'x, y, z'
loop_
 _atom_site_type_symbol
 _atom_site_label
 _atom_site_symmetry_multiplicity
 _atom_site_fract_x
 _atom_site_fract_y
 _atom_site_fract_z
 _atom_site_fract_occupancy
 F  F1  1  0.03760  0.07521  0.11866  1
 F  F2  1  0.03760  0.07521  0.38134  1
 F  F3  1  0.24486  0.48973  0.75000  1
 F  F4  1  0.75514  0.51027  0.25000  1
 F  F5  1  0.96240  0.92479  0.61866  1
 F  F6  1  0.96240  0.92479  0.88134  1
 Fe  Fe1  1  0.15664  0.31329  0.55949  1
 Fe  Fe2  1  0.15664  0.31329  0.94051  1
 Fe  Fe3  1  0.84336  0.68671  0.05949  1
 Fe  Fe4  1  0.84336  0.68671  0.44051  1
 Li  Li1  1  0.17351  0.34703  0.25000  1
 Li  Li2  1  0.82649  0.65297  0.75000  1
 O  O1  1  0.32120  0.64240  0.44434  1
 O  O2  1  0.32120  0.64240  0.05566  1
 O  O3  1  0.67880  0.35760  0.94434  1
 O  O4  1  0.67880  0.35760  0.55566  1
