CIF file written using JARVIS-Tools package.
data_K2HBrO
_symmetry_space_group_name_H-M  'P2_1/m'
_cell_length_a       6.64272
_cell_length_b       4.24266
_cell_length_c       8.43847
_cell_angle_alpha    90
_cell_angle_beta     108.189
_cell_angle_gamma    90

_symmetry_Int_Tables_number  11
_chemical_formula_structural  K2HBrO
_chemical_formula_sum  K4H2Br2O2
_cell_volume  225.93633763935037
_cell_formula_units_Z  2
loop_
  _symmetry_equiv_pos_site_id
 _symmetry_equiv_pos_as_xyz
 1  'x, y, z'
loop_
 _atom_site_type_symbol
 _atom_site_label
 _atom_site_symmetry_multiplicity
 _atom_site_fract_x
 _atom_site_fract_y
 _atom_site_fract_z
 _atom_site_fract_occupancy
 Br  Br1  1  0.82002  0.25000  0.69940  1
 Br  Br2  1  0.17998  0.75000  0.30060  1
 H  H1  1  0.84622  0.25000  0.21339  1
 H  H2  1  0.15378  0.75000  0.78661  1
 K  K1  1  0.71118  0.75000  0.96484  1
 K  K2  1  0.28882  0.25000  0.03516  1
 K  K3  1  0.29499  0.25000  0.61677  1
 K  K4  1  0.70501  0.75000  0.38323  1
 O  O1  1  0.69124  0.25000  0.17284  1
 O  O2  1  0.30876  0.75000  0.82716  1
