CIF file written using JARVIS-Tools package.
data_Li5Nb2Fe3O10
_symmetry_space_group_name_H-M  'P-1'
_cell_length_a       5.22481
_cell_length_b       5.21978
_cell_length_c       7.82208
_cell_angle_alpha    70.6298
_cell_angle_beta     71.3581
_cell_angle_gamma    79.8136

_symmetry_Int_Tables_number  2
_chemical_formula_structural  Li5Nb2Fe3O10
_chemical_formula_sum  Li5Nb2Fe3O0
_cell_volume  190.09289112092534
_cell_formula_units_Z  1
loop_
  _symmetry_equiv_pos_site_id
 _symmetry_equiv_pos_as_xyz
 1  'x, y, z'
loop_
 _atom_site_type_symbol
 _atom_site_label
 _atom_site_symmetry_multiplicity
 _atom_site_fract_x
 _atom_site_fract_y
 _atom_site_fract_z
 _atom_site_fract_occupancy
 Fe  Fe1  1  0.50000  0.00000  -0.00000  1
 Fe  Fe2  1  0.00273  0.69951  0.08120  1
 Fe  Fe3  1  0.99727  0.30049  0.91880  1
 Li  Li1  1  0.49733  0.22757  0.59444  1
 Li  Li2  1  0.50267  0.77243  0.40556  1
 Li  Li3  1  -0.00000  0.50000  0.50000  1
 Li  Li4  1  0.52513  0.57542  0.78807  1
 Li  Li5  1  0.47487  0.42458  0.21193  1
 Nb  Nb1  1  0.01000  0.88880  0.71171  1
 Nb  Nb2  1  0.99000  0.11120  0.28829  1
 O  O1  1  0.22322  0.13968  0.45480  1
 O  O2  1  0.26400  0.35418  0.05738  1
 O  O3  1  0.25942  0.96599  0.84236  1
 O  O4  1  0.73600  0.64582  0.94262  1
 O  O5  1  0.77678  0.86032  0.54520  1
 O  O6  1  0.23681  0.76583  0.24891  1
 O  O7  1  0.24591  0.56579  0.65740  1
 O  O8  1  0.75409  0.43421  0.34260  1
 O  O9  1  0.76319  0.23417  0.75109  1
 O  O10  1  0.74058  0.03401  0.15764  1
