CIF file written using JARVIS-Tools package.
data_SmIn2Ir
_symmetry_space_group_name_H-M  'Cmcm'
_cell_length_a       4.31084
_cell_length_b       5.59901
_cell_length_c       8.14001
_cell_angle_alpha    90
_cell_angle_beta     90
_cell_angle_gamma    112.641

_symmetry_Int_Tables_number  63
_chemical_formula_structural  SmIn2Ir
_chemical_formula_sum  Sm2In4Ir2
_cell_volume  181.32930724933897
_cell_formula_units_Z  2
loop_
  _symmetry_equiv_pos_site_id
 _symmetry_equiv_pos_as_xyz
 1  'x, y, z'
loop_
 _atom_site_type_symbol
 _atom_site_label
 _atom_site_symmetry_multiplicity
 _atom_site_fract_x
 _atom_site_fract_y
 _atom_site_fract_z
 _atom_site_fract_occupancy
 In  In1  1  0.35724  0.71449  0.54991  1
 In  In2  1  0.64276  0.28551  0.45009  1
 In  In3  1  0.35724  0.71449  0.95009  1
 In  In4  1  0.64276  0.28551  0.04991  1
 Ir  Ir1  1  0.22225  0.44451  0.25000  1
 Ir  Ir2  1  0.77775  0.55549  0.75000  1
 Sm  Sm1  1  0.07041  0.14082  0.75000  1
 Sm  Sm2  1  0.92959  0.85918  0.25000  1
