CIF file written using JARVIS-Tools package.
data_Li6Br3N
_symmetry_space_group_name_H-M  'I4/m'
_cell_length_a       6.26499
_cell_length_b       6.26525
_cell_length_c       6.2625
_cell_angle_alpha    60.0117
_cell_angle_beta     60.0159
_cell_angle_gamma    59.9733

_symmetry_Int_Tables_number  87
_chemical_formula_structural  Li6Br3N
_chemical_formula_sum  Li6Br3N
_cell_volume  173.81792038003067
_cell_formula_units_Z  1
loop_
  _symmetry_equiv_pos_site_id
 _symmetry_equiv_pos_as_xyz
 1  'x, y, z'
loop_
 _atom_site_type_symbol
 _atom_site_label
 _atom_site_symmetry_multiplicity
 _atom_site_fract_x
 _atom_site_fract_y
 _atom_site_fract_z
 _atom_site_fract_occupancy
 Br  Br1  1  0.26416  0.23583  0.26410  1
 Br  Br2  1  0.51417  0.48583  0.51413  1
 Br  Br3  1  0.76417  0.73584  0.76409  1
 Li  Li1  1  0.29330  0.70670  0.13773  1
 Li  Li2  1  0.22748  0.19897  0.80117  1
 Li  Li3  1  0.13774  0.86226  0.73522  1
 Li  Li4  1  0.89070  0.10930  0.29325  1
 Li  Li5  1  0.73524  0.26476  0.89066  1
 Li  Li6  1  0.80103  0.77252  0.22763  1
 N  N1  1  0.01422  0.98578  0.01423  1
