CIF file written using JARVIS-Tools package.
data_H3BrO
_symmetry_space_group_name_H-M  'R3m'
_cell_length_a       4.1302
_cell_length_b       4.13131
_cell_length_c       4.13476
_cell_angle_alpha    75.7467
_cell_angle_beta     75.7443
_cell_angle_gamma    75.7124

_symmetry_Int_Tables_number  160
_chemical_formula_structural  H3BrO
_chemical_formula_sum  H3BrO
_cell_volume  64.96004572926415
_cell_formula_units_Z  1
loop_
  _symmetry_equiv_pos_site_id
 _symmetry_equiv_pos_as_xyz
 1  'x, y, z'
loop_
 _atom_site_type_symbol
 _atom_site_label
 _atom_site_symmetry_multiplicity
 _atom_site_fract_x
 _atom_site_fract_y
 _atom_site_fract_z
 _atom_site_fract_occupancy
 Br  Br1  1  0.97466  0.99326  0.98857  1
 H  H1  1  0.66905  0.68761  0.35014  1
 H  H2  1  0.66923  0.35488  0.68274  1
 H  H3  1  0.33626  0.68777  0.68278  1
 O  O1  1  0.52074  0.53933  0.53449  1
