CIF file written using JARVIS-Tools package.
data_LiCoSnO4
_symmetry_space_group_name_H-M  'Imma'
_cell_length_a       5.99649
_cell_length_b       5.99649
_cell_length_c       5.99649
_cell_angle_alpha    88.9169
_cell_angle_beta     116.924
_cell_angle_gamma    58.1097

_symmetry_Int_Tables_number  74
_chemical_formula_structural  LiCoSnO4
_chemical_formula_sum  Li2Co2Sn2O8
_cell_volume  153.45089456233492
_cell_formula_units_Z  2
loop_
  _symmetry_equiv_pos_site_id
 _symmetry_equiv_pos_as_xyz
 1  'x, y, z'
loop_
 _atom_site_type_symbol
 _atom_site_label
 _atom_site_symmetry_multiplicity
 _atom_site_fract_x
 _atom_site_fract_y
 _atom_site_fract_z
 _atom_site_fract_occupancy
 Co  Co1  1  0.50000  0.00000  -0.00000  1
 Co  Co2  1  0.00000  0.50000  -0.00000  1
 Li  Li1  1  0.75000  0.12019  0.62981  1
 Li  Li2  1  0.25000  0.87981  0.37019  1
 O  O1  1  0.54139  0.74637  0.79502  1
 O  O2  1  0.95861  0.74637  0.21224  1
 O  O3  1  0.98945  0.27757  0.23298  1
 O  O4  1  0.51055  0.75647  0.23298  1
 O  O5  1  0.48945  0.24353  0.76702  1
 O  O6  1  0.01055  0.72243  0.76702  1
 O  O7  1  0.04139  0.25363  0.78776  1
 O  O8  1  0.45861  0.25363  0.20498  1
 Sn  Sn1  1  0.50000  0.50000  -0.00000  1
 Sn  Sn2  1  0.00000  0.50000  0.50000  1
