CIF file written using JARVIS-Tools package.
data_NaClO2
_symmetry_space_group_name_H-M  'Cm'
_cell_length_a       4.40889
_cell_length_b       4.55678
_cell_length_c       6.6128
_cell_angle_alpha    107.571
_cell_angle_beta     110.928
_cell_angle_gamma    84.9442

_symmetry_Int_Tables_number  8
_chemical_formula_structural  NaClO2
_chemical_formula_sum  Na2Cl2O4
_cell_volume  118.27013005076374
_cell_formula_units_Z  2
loop_
  _symmetry_equiv_pos_site_id
 _symmetry_equiv_pos_as_xyz
 1  'x, y, z'
loop_
 _atom_site_type_symbol
 _atom_site_label
 _atom_site_symmetry_multiplicity
 _atom_site_fract_x
 _atom_site_fract_y
 _atom_site_fract_z
 _atom_site_fract_occupancy
 Cl  Cl1  1  0.51267  0.41986  -0.03447  1
 Cl  Cl2  1  0.01263  0.91986  0.46550  1
 Na  Na1  1  0.06583  0.94705  0.00568  1
 Na  Na2  1  0.56583  0.44708  0.50572  1
 O  O1  1  0.82169  0.43643  0.89835  1
 O  O2  1  0.59166  0.20642  0.12827  1
 O  O3  1  0.09170  0.70642  0.62826  1
 O  O4  1  0.32165  0.93646  0.39833  1
