CIF file written using JARVIS-Tools package.
data_UGePt
_symmetry_space_group_name_H-M  'Imm2'
_cell_length_a       4.39925
_cell_length_b       5.63896
_cell_length_c       5.63896
_cell_angle_alpha    77.4144
_cell_angle_beta     67.0408
_cell_angle_gamma    67.0407

_symmetry_Int_Tables_number  44
_chemical_formula_structural  UGePt
_chemical_formula_sum  U2Ge2Pt2
_cell_volume  118.24453093222525
_cell_formula_units_Z  2
loop_
  _symmetry_equiv_pos_site_id
 _symmetry_equiv_pos_as_xyz
 1  'x, y, z'
loop_
 _atom_site_type_symbol
 _atom_site_label
 _atom_site_symmetry_multiplicity
 _atom_site_fract_x
 _atom_site_fract_y
 _atom_site_fract_z
 _atom_site_fract_occupancy
 Ge  Ge1  1  0.83540  0.43761  0.89160  1
 Ge  Ge2  1  0.83540  0.89160  0.43761  1
 Pt  Pt1  1  0.16646  0.62027  0.04682  1
 Pt  Pt2  1  0.16646  0.04682  0.62027  1
 U  U1  1  0.46739  0.03261  0.03261  1
 U  U2  1  0.52390  0.47610  0.47610  1
