CIF file written using JARVIS-Tools package.
data_Li2Ti3CoO8
_symmetry_space_group_name_H-M  'R-3m'
_cell_length_a       5.81365
_cell_length_b       5.81365
_cell_length_c       5.81365
_cell_angle_alpha    61.6942
_cell_angle_beta     61.6942
_cell_angle_gamma    61.6943

_symmetry_Int_Tables_number  166
_chemical_formula_structural  Li2Ti3CoO8
_chemical_formula_sum  Li2Ti3CoO8
_cell_volume  144.2180982236397
_cell_formula_units_Z  1
loop_
  _symmetry_equiv_pos_site_id
 _symmetry_equiv_pos_as_xyz
 1  'x, y, z'
loop_
 _atom_site_type_symbol
 _atom_site_label
 _atom_site_symmetry_multiplicity
 _atom_site_fract_x
 _atom_site_fract_y
 _atom_site_fract_z
 _atom_site_fract_occupancy
 Co  Co1  1  0.50000  0.50000  0.50000  1
 Li  Li1  1  0.12161  0.12161  0.12161  1
 Li  Li2  1  0.87839  0.87839  0.87839  1
 O  O1  1  0.25949  0.25949  0.25949  1
 O  O2  1  0.25872  0.25872  0.71442  1
 O  O3  1  0.25872  0.71442  0.25872  1
 O  O4  1  0.71442  0.25872  0.25872  1
 O  O5  1  0.28558  0.74128  0.74128  1
 O  O6  1  0.74128  0.28558  0.74128  1
 O  O7  1  0.74128  0.74128  0.28558  1
 O  O8  1  0.74051  0.74051  0.74051  1
 Ti  Ti1  1  -0.00000  0.50000  0.50000  1
 Ti  Ti2  1  0.50000  0.00000  0.50000  1
 Ti  Ti3  1  0.50000  0.50000  -0.00000  1
