CIF file written using JARVIS-Tools package.
data_SrTe3O8
_symmetry_space_group_name_H-M  'P4_2/m'
_cell_length_a       6.89335
_cell_length_b       6.89335
_cell_length_c       6.85006
_cell_angle_alpha    90
_cell_angle_beta     90
_cell_angle_gamma    90

_symmetry_Int_Tables_number  84
_chemical_formula_structural  SrTe3O8
_chemical_formula_sum  Sr2Te6O6
_cell_volume  325.50317201085636
_cell_formula_units_Z  2
loop_
  _symmetry_equiv_pos_site_id
 _symmetry_equiv_pos_as_xyz
 1  'x, y, z'
loop_
 _atom_site_type_symbol
 _atom_site_label
 _atom_site_symmetry_multiplicity
 _atom_site_fract_x
 _atom_site_fract_y
 _atom_site_fract_z
 _atom_site_fract_occupancy
 O  O1  1  0.58931  0.19044  0.80612  1
 O  O2  1  0.95476  0.32157  0.00000  1
 O  O3  1  0.32157  0.04524  0.50000  1
 O  O4  1  0.67843  0.95476  0.50000  1
 O  O5  1  0.41069  0.80956  0.19388  1
 O  O6  1  0.75706  0.88277  0.00000  1
 O  O7  1  0.88277  0.24294  0.50000  1
 O  O8  1  0.04524  0.67843  0.00000  1
 O  O9  1  0.24294  0.11723  0.00000  1
 O  O10  1  0.19044  0.41069  0.30612  1
 O  O11  1  0.41069  0.80956  0.80612  1
 O  O12  1  0.19044  0.41069  0.69388  1
 O  O13  1  0.80956  0.58931  0.30612  1
 O  O14  1  0.80956  0.58931  0.69388  1
 O  O15  1  0.58931  0.19044  0.19388  1
 O  O16  1  0.11723  0.75706  0.50000  1
 Sr  Sr1  1  0.00000  0.00000  0.75000  1
 Sr  Sr2  1  0.00000  0.00000  0.25000  1
 Te  Te1  1  0.00000  0.50000  0.50000  1
 Te  Te2  1  0.50000  0.00000  0.00000  1
 Te  Te3  1  0.22002  0.43824  0.00000  1
 Te  Te4  1  0.43824  0.77998  0.50000  1
 Te  Te5  1  0.56176  0.22002  0.50000  1
 Te  Te6  1  0.77998  0.56176  0.00000  1
