CIF file written using JARVIS-Tools package.
data_CaH2O2
_symmetry_space_group_name_H-M  'C2/m'
_cell_length_a       3.59011
_cell_length_b       3.58899
_cell_length_c       4.82292
_cell_angle_alpha    90.1644
_cell_angle_beta     89.9954
_cell_angle_gamma    120

_symmetry_Int_Tables_number  12
_chemical_formula_structural  CaH2O2
_chemical_formula_sum  CaH2O2
_cell_volume  53.816695211002504
_cell_formula_units_Z  1
loop_
  _symmetry_equiv_pos_site_id
 _symmetry_equiv_pos_as_xyz
 1  'x, y, z'
loop_
 _atom_site_type_symbol
 _atom_site_label
 _atom_site_symmetry_multiplicity
 _atom_site_fract_x
 _atom_site_fract_y
 _atom_site_fract_z
 _atom_site_fract_occupancy
 Ca  Ca1  1  0.08576  0.01107  0.97462  1
 H  H1  1  0.41794  0.67670  0.53196  1
 H  H2  1  0.75244  0.34581  0.41732  1
 O  O1  1  0.41862  0.67659  0.73440  1
 O  O2  1  0.75299  0.34548  0.21488  1
