CIF file written using JARVIS-Tools package.
data_LiAgF3
_symmetry_space_group_name_H-M  'C2/c'
_cell_length_a       6.67951
_cell_length_b       6.67951
_cell_length_c       5.95765
_cell_angle_alpha    86.9391
_cell_angle_beta     93.0609
_cell_angle_gamma    91.8312

_symmetry_Int_Tables_number  15
_chemical_formula_structural  LiAgF3
_chemical_formula_sum  Li4Ag4F2
_cell_volume  264.93496927726505
_cell_formula_units_Z  4
loop_
  _symmetry_equiv_pos_site_id
 _symmetry_equiv_pos_as_xyz
 1  'x, y, z'
loop_
 _atom_site_type_symbol
 _atom_site_label
 _atom_site_symmetry_multiplicity
 _atom_site_fract_x
 _atom_site_fract_y
 _atom_site_fract_z
 _atom_site_fract_occupancy
 Ag  Ag1  1  0.21102  0.21102  0.25000  1
 Ag  Ag2  1  0.40959  0.40959  0.75000  1
 Ag  Ag3  1  0.59041  0.59041  0.25000  1
 Ag  Ag4  1  0.78898  0.78898  0.75000  1
 F  F1  1  0.70800  0.47558  0.66487  1
 F  F2  1  0.07447  0.80247  0.60467  1
 F  F3  1  0.87603  0.61951  0.14595  1
 F  F4  1  0.19753  0.92553  0.10467  1
 F  F5  1  0.29200  0.52442  0.33513  1
 F  F6  1  0.12397  0.38049  0.85405  1
 F  F7  1  0.47558  0.70800  0.83513  1
 F  F8  1  0.92553  0.19753  0.39533  1
 F  F9  1  0.61951  0.87603  0.35405  1
 F  F10  1  0.38049  0.12397  0.64595  1
 F  F11  1  0.80247  0.07447  0.89533  1
 F  F12  1  0.52442  0.29200  0.16487  1
 Li  Li1  1  0.90311  0.26939  0.69348  1
 Li  Li2  1  0.73061  0.09689  0.19348  1
 Li  Li3  1  0.26939  0.90311  0.80652  1
 Li  Li4  1  0.09689  0.73061  0.30652  1
