CIF file written using JARVIS-Tools package.
data_Li4MnV2WO12
_symmetry_space_group_name_H-M  'P1'
_cell_length_a       5.0033
_cell_length_b       5.31668
_cell_length_c       7.28325
_cell_angle_alpha    94.9103
_cell_angle_beta     90.067
_cell_angle_gamma    89.9791

_symmetry_Int_Tables_number  1
_chemical_formula_structural  Li4MnV2WO12
_chemical_formula_sum  Li4MnV2WO2
_cell_volume  193.03004679716847
_cell_formula_units_Z  1
loop_
  _symmetry_equiv_pos_site_id
 _symmetry_equiv_pos_as_xyz
 1  'x, y, z'
loop_
 _atom_site_type_symbol
 _atom_site_label
 _atom_site_symmetry_multiplicity
 _atom_site_fract_x
 _atom_site_fract_y
 _atom_site_fract_z
 _atom_site_fract_occupancy
 Li  Li1  1  0.00190  0.42529  0.31300  1
 Li  Li2  1  0.49300  0.90403  0.77353  1
 Li  Li3  1  0.01239  0.43081  0.76212  1
 Li  Li4  1  0.49340  0.92847  0.31058  1
 Mn  Mn1  1  0.49922  0.48603  0.50778  1
 O  O1  1  0.29648  0.21845  0.43131  1
 O  O2  1  0.86878  0.01824  0.24070  1
 O  O3  1  0.32372  0.83462  0.05448  1
 O  O4  1  0.19343  0.72520  0.43390  1
 O  O5  1  0.12059  0.03021  0.74613  1
 O  O6  1  0.38669  0.53109  0.74614  1
 O  O7  1  0.80946  0.32770  0.54311  1
 O  O8  1  0.18351  0.33314  0.05161  1
 O  O9  1  0.82062  0.69594  0.92412  1
 O  O10  1  0.68177  0.19672  0.92576  1
 O  O11  1  0.61743  0.51461  0.22993  1
 O  O12  1  0.69799  0.82885  0.54868  1
 V  V1  1  0.49773  0.46420  0.00552  1
 V  V2  1  -0.00134  0.98621  0.51441  1
 W  W1  1  0.00321  0.97780  0.00840  1
