CIF file written using JARVIS-Tools package.
data_MgV4O8
_symmetry_space_group_name_H-M  'R-3m'
_cell_length_a       6.00244
_cell_length_b       6.00244
_cell_length_c       6.00244
_cell_angle_alpha    56.889
_cell_angle_beta     56.889
_cell_angle_gamma    56.889

_symmetry_Int_Tables_number  166
_chemical_formula_structural  MgV4O8
_chemical_formula_sum  MgV4O8
_cell_volume  141.94581022000452
_cell_formula_units_Z  1
loop_
  _symmetry_equiv_pos_site_id
 _symmetry_equiv_pos_as_xyz
 1  'x, y, z'
loop_
 _atom_site_type_symbol
 _atom_site_label
 _atom_site_symmetry_multiplicity
 _atom_site_fract_x
 _atom_site_fract_y
 _atom_site_fract_z
 _atom_site_fract_occupancy
 Mg  Mg1  1  0.50000  0.50000  0.50000  1
 O  O1  1  0.75499  0.26775  0.75499  1
 O  O2  1  0.24501  0.24501  0.73225  1
 O  O3  1  0.24501  0.73225  0.24501  1
 O  O4  1  0.73225  0.24501  0.24501  1
 O  O5  1  0.26536  0.26536  0.26536  1
 O  O6  1  0.73464  0.73464  0.73464  1
 O  O7  1  0.26775  0.75499  0.75499  1
 O  O8  1  0.75499  0.75499  0.26775  1
 V  V1  1  0.50000  1.00000  0.50000  1
 V  V2  1  1.00000  0.50000  0.50000  1
 V  V3  1  0.50000  0.50000  -0.00000  1
 V  V4  1  0.00000  0.00000  0.00000  1
