CIF file written using JARVIS-Tools package.
data_Pb2SO5
_symmetry_space_group_name_H-M  'C2/m'
_cell_length_a       5.71354
_cell_length_b       7.09006
_cell_length_c       7.4724
_cell_angle_alpha    113.295
_cell_angle_beta     112.477
_cell_angle_gamma    90

_symmetry_Int_Tables_number  12
_chemical_formula_structural  Pb2SO5
_chemical_formula_sum  Pb4S2O0
_cell_volume  252.79660298280734
_cell_formula_units_Z  2
loop_
  _symmetry_equiv_pos_site_id
 _symmetry_equiv_pos_as_xyz
 1  'x, y, z'
loop_
 _atom_site_type_symbol
 _atom_site_label
 _atom_site_symmetry_multiplicity
 _atom_site_fract_x
 _atom_site_fract_y
 _atom_site_fract_z
 _atom_site_fract_occupancy
 O  O1  1  0.74696  0.00000  0.00000  1
 O  O2  1  0.25304  -0.00000  -0.00000  1
 O  O3  1  0.71553  0.29932  0.43107  1
 O  O4  1  0.28447  0.70068  0.56893  1
 O  O5  1  0.93341  0.75289  0.29146  1
 O  O6  1  0.64195  0.24711  0.70854  1
 O  O7  1  0.89870  0.57264  0.79740  1
 O  O8  1  0.10130  0.42736  0.20260  1
 O  O9  1  0.35805  0.75289  0.29146  1
 O  O10  1  0.06659  0.24711  0.70854  1
 Pb  Pb1  1  0.52385  0.27306  0.04771  1
 Pb  Pb2  1  0.47615  0.72694  0.95229  1
 Pb  Pb3  1  0.14788  0.10936  0.29576  1
 Pb  Pb4  1  0.85212  0.89064  0.70424  1
 S  S1  1  0.83129  0.34351  0.66258  1
 S  S2  1  0.16871  0.65649  0.33742  1
