CIF file written using JARVIS-Tools package.
data_BiSe
_symmetry_space_group_name_H-M  'P-3m1'
_cell_length_a       4.26627
_cell_length_b       4.26627
_cell_length_c       23.3347
_cell_angle_alpha    90
_cell_angle_beta     90
_cell_angle_gamma    120

_symmetry_Int_Tables_number  164
_chemical_formula_structural  BiSe
_chemical_formula_sum  Bi6Se6
_cell_volume  367.8157451749425
_cell_formula_units_Z  6
loop_
  _symmetry_equiv_pos_site_id
 _symmetry_equiv_pos_as_xyz
 1  'x, y, z'
loop_
 _atom_site_type_symbol
 _atom_site_label
 _atom_site_symmetry_multiplicity
 _atom_site_fract_x
 _atom_site_fract_y
 _atom_site_fract_z
 _atom_site_fract_occupancy
 Bi  Bi1  1  0.66667  0.33333  0.53867  1
 Bi  Bi2  1  0.33333  0.66667  0.46133  1
 Bi  Bi3  1  0.66667  0.33333  0.28444  1
 Bi  Bi4  1  0.33333  0.66667  0.71556  1
 Bi  Bi5  1  0.00000  0.00000  0.12173  1
 Bi  Bi6  1  0.00000  0.00000  0.87827  1
 Se  Se1  1  0.00000  0.00000  0.35166  1
 Se  Se2  1  0.00000  0.00000  0.64834  1
 Se  Se3  1  0.66667  0.33333  0.79561  1
 Se  Se4  1  0.33333  0.66667  0.20439  1
 Se  Se5  1  0.66667  0.33333  0.05650  1
 Se  Se6  1  0.33333  0.66667  0.94350  1
