CIF file written using JARVIS-Tools package.
data_Ba2CuF6
_symmetry_space_group_name_H-M  'Cmce'
_cell_length_a       5.95932
_cell_length_b       5.88084
_cell_length_c       8.48236
_cell_angle_alpha    110.283
_cell_angle_beta     90
_cell_angle_gamma    90

_symmetry_Int_Tables_number  64
_chemical_formula_structural  Ba2CuF6
_chemical_formula_sum  Ba4Cu2F2
_cell_volume  278.83895731646163
_cell_formula_units_Z  2
loop_
  _symmetry_equiv_pos_site_id
 _symmetry_equiv_pos_as_xyz
 1  'x, y, z'
loop_
 _atom_site_type_symbol
 _atom_site_label
 _atom_site_symmetry_multiplicity
 _atom_site_fract_x
 _atom_site_fract_y
 _atom_site_fract_z
 _atom_site_fract_occupancy
 Ba  Ba1  1  0.00000  0.14976  0.29951  1
 Ba  Ba2  1  0.00000  0.85024  0.70049  1
 Ba  Ba3  1  0.50000  0.64976  0.29951  1
 Ba  Ba4  1  0.50000  0.35024  0.70049  1
 Cu  Cu1  1  0.00000  0.50000  -0.00000  1
 Cu  Cu2  1  0.50000  0.00000  0.00000  1
 F  F1  1  0.00000  0.61954  0.23909  1
 F  F2  1  0.50000  0.11954  0.23909  1
 F  F3  1  0.00000  0.38046  0.76091  1
 F  F4  1  0.67188  0.71376  -0.00000  1
 F  F5  1  0.17188  0.78624  0.00000  1
 F  F6  1  0.25000  0.49799  0.50000  1
 F  F7  1  0.50000  0.88046  0.76091  1
 F  F8  1  0.75000  0.50201  0.50000  1
 F  F9  1  0.32812  0.28624  0.00000  1
 F  F10  1  0.82812  0.21376  -0.00000  1
 F  F11  1  0.25000  0.99799  0.50000  1
 F  F12  1  0.75000  0.00201  0.50000  1
