CIF file written using JARVIS-Tools package.
data_HoTaO4
_symmetry_space_group_name_H-M  'C2/c'
_cell_length_a       5.08286
_cell_length_b       5.32613
_cell_length_c       6.50529
_cell_angle_alpha    111.861
_cell_angle_beta     110.603
_cell_angle_gamma    95.4365

_symmetry_Int_Tables_number  15
_chemical_formula_structural  HoTaO4
_chemical_formula_sum  Ho2Ta2O8
_cell_volume  147.73628504890814
_cell_formula_units_Z  2
loop_
  _symmetry_equiv_pos_site_id
 _symmetry_equiv_pos_as_xyz
 1  'x, y, z'
loop_
 _atom_site_type_symbol
 _atom_site_label
 _atom_site_symmetry_multiplicity
 _atom_site_fract_x
 _atom_site_fract_y
 _atom_site_fract_z
 _atom_site_fract_occupancy
 Ho  Ho1  1  0.38120  0.63119  0.26238  1
 Ho  Ho2  1  0.61880  0.36881  0.73762  1
 O  O1  1  0.00143  0.78648  0.06226  1
 O  O2  1  0.56082  0.27577  0.06225  1
 O  O3  1  0.99857  0.21352  0.93774  1
 O  O4  1  0.43918  0.72423  0.93775  1
 O  O5  1  0.20973  0.36984  0.42222  1
 O  O6  1  0.71249  0.05238  0.42222  1
 O  O7  1  0.79027  0.63016  0.57778  1
 O  O8  1  0.28751  0.94762  0.57778  1
 Ta  Ta1  1  0.85234  0.10234  0.20468  1
 Ta  Ta2  1  0.14766  0.89766  0.79532  1
