CIF file written using JARVIS-Tools package.
data_SmRhO3
_symmetry_space_group_name_H-M  'Pnma'
_cell_length_a       5.31527
_cell_length_b       5.86432
_cell_length_c       7.72662
_cell_angle_alpha    90
_cell_angle_beta     90
_cell_angle_gamma    90

_symmetry_Int_Tables_number  62
_chemical_formula_structural  SmRhO3
_chemical_formula_sum  Sm4Rh4O2
_cell_volume  240.84237905710188
_cell_formula_units_Z  4
loop_
  _symmetry_equiv_pos_site_id
 _symmetry_equiv_pos_as_xyz
 1  'x, y, z'
loop_
 _atom_site_type_symbol
 _atom_site_label
 _atom_site_symmetry_multiplicity
 _atom_site_fract_x
 _atom_site_fract_y
 _atom_site_fract_z
 _atom_site_fract_occupancy
 O  O1  1  0.37887  0.04183  0.25000  1
 O  O2  1  0.82081  0.19318  0.44383  1
 O  O3  1  0.12113  0.54183  0.25000  1
 O  O4  1  0.67919  0.69318  0.05617  1
 O  O5  1  0.17919  0.80682  0.94383  1
 O  O6  1  0.32081  0.30682  0.55617  1
 O  O7  1  0.67919  0.69318  0.44383  1
 O  O8  1  0.32081  0.30682  0.94383  1
 O  O9  1  0.82081  0.19318  0.05617  1
 O  O10  1  0.62113  0.95817  0.75000  1
 O  O11  1  0.87887  0.45817  0.75000  1
 O  O12  1  0.17919  0.80682  0.55617  1
 Rh  Rh1  1  0.50000  0.00000  0.00000  1
 Rh  Rh2  1  0.00000  0.50000  0.00000  1
 Rh  Rh3  1  0.00000  0.50000  0.50000  1
 Rh  Rh4  1  0.50000  0.00000  0.50000  1
 Sm  Sm1  1  0.52863  0.41812  0.25000  1
 Sm  Sm2  1  0.02863  0.08188  0.75000  1
 Sm  Sm3  1  0.97137  0.91812  0.25000  1
 Sm  Sm4  1  0.47137  0.58188  0.75000  1
