CIF file written using JARVIS-Tools package.
data_PtPb2
_symmetry_space_group_name_H-M  'I4/mcm'
_cell_length_a       5.80283
_cell_length_b       5.80283
_cell_length_c       5.80284
_cell_angle_alpha    104.612
_cell_angle_beta     104.612
_cell_angle_gamma    119.7

_symmetry_Int_Tables_number  140
_chemical_formula_structural  PtPb2
_chemical_formula_sum  Pt2Pb4
_cell_volume  146.76714432589338
_cell_formula_units_Z  2
loop_
  _symmetry_equiv_pos_site_id
 _symmetry_equiv_pos_as_xyz
 1  'x, y, z'
loop_
 _atom_site_type_symbol
 _atom_site_label
 _atom_site_symmetry_multiplicity
 _atom_site_fract_x
 _atom_site_fract_y
 _atom_site_fract_z
 _atom_site_fract_occupancy
 Pb  Pb1  1  0.66056  0.16056  0.82112  1
 Pb  Pb2  1  0.16056  0.33944  0.50000  1
 Pb  Pb3  1  0.83944  0.66056  0.50000  1
 Pb  Pb4  1  0.33944  0.83944  0.17888  1
 Pt  Pt1  1  0.25000  0.25000  0.00000  1
 Pt  Pt2  1  0.75000  0.75000  0.00000  1
