CIF file written using JARVIS-Tools package.
data_CaMnO2
_symmetry_space_group_name_H-M  'P1'
_cell_length_a       3.37646
_cell_length_b       7.53101
_cell_length_c       8.77832
_cell_angle_alpha    79.4463
_cell_angle_beta     83.0114
_cell_angle_gamma    83.7256

_symmetry_Int_Tables_number  1
_chemical_formula_structural  CaMnO2
_chemical_formula_sum  Ca4Mn4O8
_cell_volume  216.94233869104733
_cell_formula_units_Z  4
loop_
  _symmetry_equiv_pos_site_id
 _symmetry_equiv_pos_as_xyz
 1  'x, y, z'
loop_
 _atom_site_type_symbol
 _atom_site_label
 _atom_site_symmetry_multiplicity
 _atom_site_fract_x
 _atom_site_fract_y
 _atom_site_fract_z
 _atom_site_fract_occupancy
 Ca  Ca1  1  0.75417  0.70654  0.97492  1
 Ca  Ca2  1  0.24540  0.26975  0.03979  1
 Ca  Ca3  1  0.71124  0.90166  0.32909  1
 Ca  Ca4  1  0.27803  0.06675  0.70061  1
 Mn  Mn1  1  0.70507  0.42725  0.71932  1
 Mn  Mn2  1  0.08187  0.61739  0.66641  1
 Mn  Mn3  1  0.81851  0.30629  0.36200  1
 Mn  Mn4  1  0.32384  0.58180  0.28649  1
 O  O1  1  0.66464  0.43052  0.16086  1
 O  O2  1  0.77701  0.26199  0.57774  1
 O  O3  1  0.18882  0.70510  0.45401  1
 O  O4  1  0.32307  0.54360  0.85727  1
 O  O5  1  0.80477  0.20859  0.87626  1
 O  O6  1  0.84045  0.84340  0.71678  1
 O  O7  1  0.18131  0.78949  0.13393  1
 O  O8  1  0.17285  0.11426  0.30517  1
