CIF file written using JARVIS-Tools package.
data_Li2CrCo3O8
_symmetry_space_group_name_H-M  'R-3m'
_cell_length_a       5.70569
_cell_length_b       5.70569
_cell_length_c       5.6771
_cell_angle_alpha    59.8332
_cell_angle_beta     120.167
_cell_angle_gamma    120

_symmetry_Int_Tables_number  166
_chemical_formula_structural  Li2CrCo3O8
_chemical_formula_sum  Li2CrCo3O8
_cell_volume  130.35522607238494
_cell_formula_units_Z  1
loop_
  _symmetry_equiv_pos_site_id
 _symmetry_equiv_pos_as_xyz
 1  'x, y, z'
loop_
 _atom_site_type_symbol
 _atom_site_label
 _atom_site_symmetry_multiplicity
 _atom_site_fract_x
 _atom_site_fract_y
 _atom_site_fract_z
 _atom_site_fract_occupancy
 Co  Co1  1  0.50000  0.50000  0.00000  1
 Co  Co2  1  0.50000  0.00000  0.00000  1
 Co  Co3  1  0.00000  0.50000  -0.00000  1
 Cr  Cr1  1  0.50000  0.50000  0.50000  1
 Li  Li1  1  0.87661  0.12339  0.62982  1
 Li  Li2  1  0.12339  0.87661  0.37018  1
 O  O1  1  0.73870  0.71224  0.76516  1
 O  O2  1  0.73870  0.26130  0.76516  1
 O  O3  1  0.26378  0.73622  0.79133  1
 O  O4  1  0.28776  0.26130  0.76516  1
 O  O5  1  0.71224  0.73870  0.23484  1
 O  O6  1  0.73622  0.26378  0.20867  1
 O  O7  1  0.26130  0.73870  0.23484  1
 O  O8  1  0.26130  0.28776  0.23484  1
