CIF file written using JARVIS-Tools package.
data_GaS
_symmetry_space_group_name_H-M  'R-3m'
_cell_length_a       8.03643
_cell_length_b       8.03642
_cell_length_c       8.03643
_cell_angle_alpha    26.1096
_cell_angle_beta     26.1096
_cell_angle_gamma    26.1096

_symmetry_Int_Tables_number  166
_chemical_formula_structural  GaS
_chemical_formula_sum  Ga2S2
_cell_volume  88.56189803897536
_cell_formula_units_Z  2
loop_
  _symmetry_equiv_pos_site_id
 _symmetry_equiv_pos_as_xyz
 1  'x, y, z'
loop_
 _atom_site_type_symbol
 _atom_site_label
 _atom_site_symmetry_multiplicity
 _atom_site_fract_x
 _atom_site_fract_y
 _atom_site_fract_z
 _atom_site_fract_occupancy
 Ga  Ga1  1  0.94735  0.94735  0.94735  1
 Ga  Ga2  1  0.05265  0.05265  0.05265  1
 S  S1  1  0.23431  0.23431  0.23431  1
 S  S2  1  0.76569  0.76569  0.76569  1
