CIF file written using JARVIS-Tools package.
data_Li4V2Cr3Fe3O16
_symmetry_space_group_name_H-M  'Cm'
_cell_length_a       5.6936
_cell_length_b       5.71578
_cell_length_c       9.3116
_cell_angle_alpha    90.0002
_cell_angle_beta     89.9844
_cell_angle_gamma    120.13

_symmetry_Int_Tables_number  8
_chemical_formula_structural  Li4V2Cr3Fe3O16
_chemical_formula_sum  Li4V2Cr3Fe3O6
_cell_volume  262.08817238386763
_cell_formula_units_Z  1
loop_
  _symmetry_equiv_pos_site_id
 _symmetry_equiv_pos_as_xyz
 1  'x, y, z'
loop_
 _atom_site_type_symbol
 _atom_site_label
 _atom_site_symmetry_multiplicity
 _atom_site_fract_x
 _atom_site_fract_y
 _atom_site_fract_z
 _atom_site_fract_occupancy
 Cr  Cr1  1  0.33673  0.16838  0.71444  1
 Cr  Cr2  1  0.17941  0.34614  0.21457  1
 Cr  Cr3  1  0.17941  0.83329  0.21456  1
 Fe  Fe1  1  0.82995  0.65200  0.71483  1
 Fe  Fe2  1  0.64782  0.82392  0.21284  1
 Fe  Fe3  1  0.82995  0.17797  0.71484  1
 Li  Li1  1  0.34399  0.67201  0.89112  1
 Li  Li2  1  0.67557  0.33779  0.39646  1
 Li  Li3  1  0.98720  0.99362  0.49440  1
 Li  Li4  1  0.99019  0.99511  0.99588  1
 O  O1  1  0.16523  0.82854  0.59583  1
 O  O2  1  0.04571  0.52286  0.34119  1
 O  O3  1  0.33291  0.66647  0.09719  1
 O  O4  1  0.99242  0.99622  0.30435  1
 O  O5  1  0.98688  0.99345  0.80722  1
 O  O6  1  0.16523  0.33671  0.59583  1
 O  O7  1  0.96653  0.48327  0.84211  1
 O  O8  1  0.48682  0.52313  0.34428  1
 O  O9  1  0.82635  0.66144  0.09990  1
 O  O10  1  0.52097  0.47856  0.84006  1
 O  O11  1  0.52097  0.04243  0.84006  1
 O  O12  1  0.66866  0.33434  0.60386  1
 O  O13  1  0.48682  0.96371  0.34427  1
 O  O14  1  0.33917  0.16960  0.09546  1
 O  O15  1  0.65960  0.82981  0.60154  1
 O  O16  1  0.82635  0.16494  0.09990  1
 V  V1  1  0.67322  0.33662  0.99320  1
 V  V2  1  0.33595  0.66799  0.49764  1
