CIF file written using JARVIS-Tools package.
data_Mg2Mn3O8
_symmetry_space_group_name_H-M  'Cmce'
_cell_length_a       6.39077
_cell_length_b       6.39077
_cell_length_c       8.34155
_cell_angle_alpha    90
_cell_angle_beta     90
_cell_angle_gamma    53.9701

_symmetry_Int_Tables_number  64
_chemical_formula_structural  Mg2Mn3O8
_chemical_formula_sum  Mg4Mn6O6
_cell_volume  275.51517745429203
_cell_formula_units_Z  2
loop_
  _symmetry_equiv_pos_site_id
 _symmetry_equiv_pos_as_xyz
 1  'x, y, z'
loop_
 _atom_site_type_symbol
 _atom_site_label
 _atom_site_symmetry_multiplicity
 _atom_site_fract_x
 _atom_site_fract_y
 _atom_site_fract_z
 _atom_site_fract_occupancy
 Mg  Mg1  1  0.14366  0.14366  0.60721  1
 Mg  Mg2  1  0.35634  0.35634  0.10721  1
 Mg  Mg3  1  0.64366  0.64366  0.89279  1
 Mg  Mg4  1  0.85634  0.85634  0.39279  1
 Mn  Mn1  1  0.00000  0.00000  0.00000  1
 Mn  Mn2  1  0.12920  0.62920  0.75000  1
 Mn  Mn3  1  0.37080  0.87080  0.25000  1
 Mn  Mn4  1  0.50000  0.50000  0.50000  1
 Mn  Mn5  1  0.87080  0.37080  0.25000  1
 Mn  Mn6  1  0.62920  0.12920  0.75000  1
 O  O1  1  0.27452  0.27452  0.76191  1
 O  O2  1  0.15502  0.61649  0.52586  1
 O  O3  1  0.38351  0.84498  0.47414  1
 O  O4  1  0.61649  0.15502  0.52586  1
 O  O5  1  0.34498  0.88351  0.02586  1
 O  O6  1  0.00038  0.00038  0.76498  1
 O  O7  1  0.11649  0.65502  0.97414  1
 O  O8  1  0.65502  0.11649  0.97414  1
 O  O9  1  0.49962  0.49962  0.26498  1
 O  O10  1  0.72548  0.72548  0.23809  1
 O  O11  1  0.50038  0.50038  0.73502  1
 O  O12  1  0.22548  0.22548  0.26191  1
 O  O13  1  0.88351  0.34498  0.02586  1
 O  O14  1  -0.00038  -0.00038  0.23502  1
 O  O15  1  0.77452  0.77452  0.73809  1
 O  O16  1  0.84498  0.38351  0.47414  1
