CIF file written using JARVIS-Tools package.
data_Cr2CdH14N4O8
_symmetry_space_group_name_H-M  'C2/m'
_cell_length_a       7.04424
_cell_length_b       7.04424
_cell_length_c       7.62417
_cell_angle_alpha    71.4437
_cell_angle_beta     108.556
_cell_angle_gamma    128.857

_symmetry_Int_Tables_number  12
_chemical_formula_structural  Cr2CdH14N4O8
_chemical_formula_sum  Cr2CdH4N4O8
_cell_volume  275.66081793891976
_cell_formula_units_Z  1
loop_
  _symmetry_equiv_pos_site_id
 _symmetry_equiv_pos_as_xyz
 1  'x, y, z'
loop_
 _atom_site_type_symbol
 _atom_site_label
 _atom_site_symmetry_multiplicity
 _atom_site_fract_x
 _atom_site_fract_y
 _atom_site_fract_z
 _atom_site_fract_occupancy
 Cd  Cd1  1  0.00000  0.00000  0.00000  1
 Cr  Cr1  1  0.33759  0.66241  0.77887  1
 Cr  Cr2  1  0.66241  0.33759  0.22113  1
 H  H1  1  0.59144  0.40856  0.76231  1
 H  H2  1  0.07772  0.92228  0.69758  1
 H  H3  1  0.09238  0.18113  0.64182  1
 H  H4  1  0.81887  0.90762  0.64182  1
 H  H5  1  0.90762  0.81887  0.35818  1
 H  H6  1  0.18113  0.09238  0.35818  1
 H  H7  1  0.92228  0.07772  0.30242  1
 H  H8  1  0.40856  0.59144  0.23769  1
 H  H9  1  0.64514  0.35486  0.58958  1
 H  H10  1  0.35486  0.64514  0.41042  1
 H  H11  1  0.85146  0.42003  0.79579  1
 H  H12  1  0.14854  0.57997  0.20421  1
 H  H13  1  0.42003  0.85146  0.20421  1
 H  H14  1  0.57997  0.14854  0.79579  1
 N  N1  1  0.00104  -0.00104  0.29142  1
 N  N2  1  -0.00104  0.00104  0.70858  1
 N  N3  1  0.33387  0.66613  0.26474  1
 N  N4  1  0.66613  0.33387  0.73526  1
 O  O1  1  0.57130  0.42870  0.33447  1
 O  O2  1  0.20841  0.79159  0.62574  1
 O  O3  1  0.13089  0.42039  0.91275  1
 O  O4  1  0.57961  0.86911  0.91275  1
 O  O5  1  0.86911  0.57961  0.08725  1
 O  O6  1  0.42039  0.13089  0.08725  1
 O  O7  1  0.42870  0.57130  0.66553  1
 O  O8  1  0.79159  0.20841  0.37426  1
