CIF file written using JARVIS-Tools package.
data_Ba2YMn3O7
_symmetry_space_group_name_H-M  'Pmmm'
_cell_length_a       3.91583
_cell_length_b       3.95346
_cell_length_c       11.5829
_cell_angle_alpha    90
_cell_angle_beta     90
_cell_angle_gamma    90

_symmetry_Int_Tables_number  47
_chemical_formula_structural  Ba2YMn3O7
_chemical_formula_sum  Ba2YMn3O7
_cell_volume  179.31489959894392
_cell_formula_units_Z  1
loop_
  _symmetry_equiv_pos_site_id
 _symmetry_equiv_pos_as_xyz
 1  'x, y, z'
loop_
 _atom_site_type_symbol
 _atom_site_label
 _atom_site_symmetry_multiplicity
 _atom_site_fract_x
 _atom_site_fract_y
 _atom_site_fract_z
 _atom_site_fract_occupancy
 Ba  Ba1  1  0.50000  0.50000  0.82333  1
 Ba  Ba2  1  0.50000  0.50000  0.17667  1
 Mn  Mn1  1  0.00000  0.00000  0.65084  1
 Mn  Mn2  1  0.00000  0.00000  0.34916  1
 Mn  Mn3  1  0.00000  0.00000  0.00000  1
 O  O1  1  0.00000  0.50000  0.00000  1
 O  O2  1  0.50000  0.00000  0.62348  1
 O  O3  1  0.50000  0.00000  0.37652  1
 O  O4  1  0.00000  0.50000  0.62332  1
 O  O5  1  0.00000  0.50000  0.37668  1
 O  O6  1  0.00000  0.00000  0.83235  1
 O  O7  1  0.00000  0.00000  0.16765  1
 Y  Y1  1  0.50000  0.50000  0.50000  1
