CIF file written using JARVIS-Tools package.
data_TbSiRh
_symmetry_space_group_name_H-M  'Cmcm'
_cell_length_a       4.08022
_cell_length_b       5.32284
_cell_length_c       10.1323
_cell_angle_alpha    90
_cell_angle_beta     90
_cell_angle_gamma    90

_symmetry_Int_Tables_number  63
_chemical_formula_structural  TbSiRh
_chemical_formula_sum  Tb4Si4Rh4
_cell_volume  220.05713488252124
_cell_formula_units_Z  4
loop_
  _symmetry_equiv_pos_site_id
 _symmetry_equiv_pos_as_xyz
 1  'x, y, z'
loop_
 _atom_site_type_symbol
 _atom_site_label
 _atom_site_symmetry_multiplicity
 _atom_site_fract_x
 _atom_site_fract_y
 _atom_site_fract_z
 _atom_site_fract_occupancy
 Rh  Rh1  1  0.75000  0.25005  0.82720  1
 Rh  Rh2  1  0.25000  0.24995  0.32720  1
 Rh  Rh3  1  0.75000  0.75005  0.67280  1
 Rh  Rh4  1  0.25000  0.74995  0.17280  1
 Si  Si1  1  0.25000  0.50008  0.75000  1
 Si  Si2  1  0.25000  0.00008  0.75000  1
 Si  Si3  1  0.75000  0.49992  0.25000  1
 Si  Si4  1  0.75000  -0.00008  0.25000  1
 Tb  Tb1  1  0.25000  0.24999  0.03835  1
 Tb  Tb2  1  0.25000  0.74999  0.46165  1
 Tb  Tb3  1  0.75000  0.25001  0.53835  1
 Tb  Tb4  1  0.75000  0.75001  0.96165  1
