CIF file written using JARVIS-Tools package.
data_MnP2O7
_symmetry_space_group_name_H-M  'P6_3/m'
_cell_length_a       4.81049
_cell_length_b       12.371
_cell_length_c       4.81048
_cell_angle_alpha    90
_cell_angle_beta     120
_cell_angle_gamma    90

_symmetry_Int_Tables_number  176
_chemical_formula_structural  MnP2O7
_chemical_formula_sum  Mn2P4O4
_cell_volume  247.9210761884284
_cell_formula_units_Z  2
loop_
  _symmetry_equiv_pos_site_id
 _symmetry_equiv_pos_as_xyz
 1  'x, y, z'
loop_
 _atom_site_type_symbol
 _atom_site_label
 _atom_site_symmetry_multiplicity
 _atom_site_fract_x
 _atom_site_fract_y
 _atom_site_fract_z
 _atom_site_fract_occupancy
 Mn  Mn1  1  0.00002  0.98942  0.00003  1
 Mn  Mn2  1  0.99998  0.48942  0.99997  1
 O  O1  1  0.65937  0.07913  0.70983  1
 O  O2  1  0.65933  0.39971  0.70975  1
 O  O3  1  0.33336  0.23942  0.66667  1
 O  O4  1  0.34067  0.89971  0.29025  1
 O  O5  1  0.05046  0.07913  0.34066  1
 O  O6  1  0.05042  0.39970  0.34061  1
 O  O7  1  0.70981  0.89971  0.05048  1
 O  O8  1  0.29019  0.39971  0.94952  1
 O  O9  1  0.70980  0.57914  0.05043  1
 O  O10  1  0.94954  0.57913  0.65934  1
 O  O11  1  0.94958  0.89970  0.65939  1
 O  O12  1  0.66664  0.73942  0.33333  1
 O  O13  1  0.29020  0.07914  0.94957  1
 O  O14  1  0.34063  0.57913  0.29017  1
 P  P1  1  0.66665  0.61203  0.33331  1
 P  P2  1  0.66668  0.86681  0.33336  1
 P  P3  1  0.33335  0.11203  0.66669  1
 P  P4  1  0.33332  0.36681  0.66664  1
