CIF file written using JARVIS-Tools package.
data_LiCuO2
_symmetry_space_group_name_H-M  'Cm'
_cell_length_a       5.06822
_cell_length_b       5.06822
_cell_length_c       7.44526
_cell_angle_alpha    54.9018
_cell_angle_beta     125.098
_cell_angle_gamma    148.728

_symmetry_Int_Tables_number  8
_chemical_formula_structural  LiCuO2
_chemical_formula_sum  Li2Cu2O4
_cell_volume  79.63730012852005
_cell_formula_units_Z  2
loop_
  _symmetry_equiv_pos_site_id
 _symmetry_equiv_pos_as_xyz
 1  'x, y, z'
loop_
 _atom_site_type_symbol
 _atom_site_label
 _atom_site_symmetry_multiplicity
 _atom_site_fract_x
 _atom_site_fract_y
 _atom_site_fract_z
 _atom_site_fract_occupancy
 Cu  Cu1  1  0.11636  0.88364  0.24477  1
 Cu  Cu2  1  0.84622  0.15378  0.72679  1
 Li  Li1  1  0.70036  0.29964  0.93288  1
 Li  Li2  1  0.97363  0.02637  0.46838  1
 O  O1  1  0.23954  0.76046  0.76943  1
 O  O2  1  0.45119  0.54881  0.68175  1
 O  O3  1  0.51691  0.48309  0.29709  1
 O  O4  1  0.72078  0.27922  0.20281  1
