CIF file written using JARVIS-Tools package.
data_Rb2Li2SiO4
_symmetry_space_group_name_H-M  'P-1'
_cell_length_a       5.48788
_cell_length_b       5.65367
_cell_length_c       8.68573
_cell_angle_alpha    83.5477
_cell_angle_beta     74.6753
_cell_angle_gamma    85.8602

_symmetry_Int_Tables_number  2
_chemical_formula_structural  Rb2Li2SiO4
_chemical_formula_sum  Rb4Li4Si2O8
_cell_volume  258.0072432382633
_cell_formula_units_Z  2
loop_
  _symmetry_equiv_pos_site_id
 _symmetry_equiv_pos_as_xyz
 1  'x, y, z'
loop_
 _atom_site_type_symbol
 _atom_site_label
 _atom_site_symmetry_multiplicity
 _atom_site_fract_x
 _atom_site_fract_y
 _atom_site_fract_z
 _atom_site_fract_occupancy
 Li  Li1  1  0.92979  0.18434  0.43800  1
 Li  Li2  1  0.07021  0.81566  0.56200  1
 Li  Li3  1  0.69604  0.59255  0.42013  1
 Li  Li4  1  0.30396  0.40745  0.57987  1
 O  O1  1  0.63758  0.35834  0.61433  1
 O  O2  1  0.73111  0.20569  0.90598  1
 O  O3  1  0.26889  0.79431  0.09402  1
 O  O4  1  0.08233  0.13394  0.61806  1
 O  O5  1  0.36242  0.64166  0.38567  1
 O  O6  1  0.91767  0.86606  0.38194  1
 O  O7  1  0.00102  0.56158  0.71924  1
 O  O8  1  -0.00102  0.43842  0.28076  1
 Rb  Rb1  1  0.47150  0.84731  0.73477  1
 Rb  Rb2  1  0.21086  0.27542  0.97913  1
 Rb  Rb3  1  0.78914  0.72458  0.02087  1
 Rb  Rb4  1  0.52850  0.15269  0.26523  1
 Si  Si1  1  0.14648  0.68605  0.27873  1
 Si  Si2  1  0.85352  0.31395  0.72127  1
