CIF file written using JARVIS-Tools package.
data_RuSe2
_symmetry_space_group_name_H-M  'Pa-3'
_cell_length_a       6.01501
_cell_length_b       6.01501
_cell_length_c       6.01501
_cell_angle_alpha    90
_cell_angle_beta     90
_cell_angle_gamma    90

_symmetry_Int_Tables_number  205
_chemical_formula_structural  RuSe2
_chemical_formula_sum  Ru4Se8
_cell_volume  217.62506814458337
_cell_formula_units_Z  4
loop_
  _symmetry_equiv_pos_site_id
 _symmetry_equiv_pos_as_xyz
 1  'x, y, z'
loop_
 _atom_site_type_symbol
 _atom_site_label
 _atom_site_symmetry_multiplicity
 _atom_site_fract_x
 _atom_site_fract_y
 _atom_site_fract_z
 _atom_site_fract_occupancy
 Ru  Ru1  1  0.00000  0.50000  0.50000  1
 Ru  Ru2  1  0.50000  0.50000  0.00000  1
 Ru  Ru3  1  0.50000  0.00000  0.50000  1
 Ru  Ru4  1  0.00000  0.00000  0.00000  1
 Se  Se1  1  0.37879  0.12121  0.87879  1
 Se  Se2  1  0.12121  0.87879  0.37879  1
 Se  Se3  1  0.87879  0.37879  0.12121  1
 Se  Se4  1  0.62121  0.62121  0.62121  1
 Se  Se5  1  0.37879  0.37879  0.37879  1
 Se  Se6  1  0.12121  0.62121  0.87879  1
 Se  Se7  1  0.87879  0.12121  0.62121  1
 Se  Se8  1  0.62121  0.87879  0.12121  1
