CIF file written using JARVIS-Tools package.
data_Co2Mo3O8
_symmetry_space_group_name_H-M  'P6_3mc'
_cell_length_a       5.79707
_cell_length_b       5.79707
_cell_length_c       9.79444
_cell_angle_alpha    90
_cell_angle_beta     90
_cell_angle_gamma    120

_symmetry_Int_Tables_number  186
_chemical_formula_structural  Co2Mo3O8
_chemical_formula_sum  Co4Mo6O6
_cell_volume  285.05439543363315
_cell_formula_units_Z  2
loop_
  _symmetry_equiv_pos_site_id
 _symmetry_equiv_pos_as_xyz
 1  'x, y, z'
loop_
 _atom_site_type_symbol
 _atom_site_label
 _atom_site_symmetry_multiplicity
 _atom_site_fract_x
 _atom_site_fract_y
 _atom_site_fract_z
 _atom_site_fract_occupancy
 Co  Co1  1  0.66667  0.33333  0.05347  1
 Co  Co2  1  0.33333  0.66667  0.55347  1
 Co  Co3  1  0.66667  0.33333  0.48414  1
 Co  Co4  1  0.33333  0.66667  0.98414  1
 Mo  Mo1  1  0.14606  0.29211  0.25123  1
 Mo  Mo2  1  0.14606  0.85394  0.25123  1
 Mo  Mo3  1  0.29211  0.14606  0.75123  1
 Mo  Mo4  1  0.85394  0.70789  0.75123  1
 Mo  Mo5  1  0.70789  0.85394  0.25123  1
 Mo  Mo6  1  0.85394  0.14606  0.75123  1
 O  O1  1  0.33897  0.16948  0.36953  1
 O  O2  1  0.66103  0.83052  0.86953  1
 O  O3  1  0.83052  0.16948  0.36953  1
 O  O4  1  0.97823  0.48912  0.63244  1
 O  O5  1  0.16948  0.33897  0.86953  1
 O  O6  1  0.16948  0.83052  0.86953  1
 O  O7  1  0.83052  0.66103  0.36953  1
 O  O8  1  0.66667  0.33333  0.85661  1
 O  O9  1  0.48912  0.97823  0.13244  1
 O  O10  1  0.00000  0.00000  0.60718  1
 O  O11  1  0.00000  0.00000  0.10718  1
 O  O12  1  0.02177  0.51088  0.13244  1
 O  O13  1  0.48912  0.51088  0.13244  1
 O  O14  1  0.51088  0.02177  0.63244  1
 O  O15  1  0.51088  0.48912  0.63244  1
 O  O16  1  0.33333  0.66667  0.35661  1
