CIF file written using JARVIS-Tools package.
data_LiVCoO4
_symmetry_space_group_name_H-M  'Cmcm'
_cell_length_a       5.13641
_cell_length_b       5.1364
_cell_length_c       6.11447
_cell_angle_alpha    90
_cell_angle_beta     90
_cell_angle_gamma    66.8771

_symmetry_Int_Tables_number  63
_chemical_formula_structural  LiVCoO4
_chemical_formula_sum  Li2V2Co2O8
_cell_volume  148.3565857407478
_cell_formula_units_Z  2
loop_
  _symmetry_equiv_pos_site_id
 _symmetry_equiv_pos_as_xyz
 1  'x, y, z'
loop_
 _atom_site_type_symbol
 _atom_site_label
 _atom_site_symmetry_multiplicity
 _atom_site_fract_x
 _atom_site_fract_y
 _atom_site_fract_z
 _atom_site_fract_occupancy
 Co  Co1  1  0.00000  0.00000  0.00000  1
 Co  Co2  1  0.00000  0.00000  0.50000  1
 Li  Li1  1  0.33750  0.33750  0.75000  1
 Li  Li2  1  0.66250  0.66250  0.25000  1
 O  O1  1  0.23447  0.23447  0.02394  1
 O  O2  1  0.23447  0.23447  0.47606  1
 O  O3  1  0.23658  0.72809  0.25000  1
 O  O4  1  0.27191  0.76342  0.75000  1
 O  O5  1  0.72809  0.23658  0.25000  1
 O  O6  1  0.76342  0.27191  0.75000  1
 O  O7  1  0.76553  0.76553  0.52394  1
 O  O8  1  0.76553  0.76553  0.97606  1
 V  V1  1  0.35250  0.35250  0.25000  1
 V  V2  1  0.64750  0.64750  0.75000  1
