CIF file written using JARVIS-Tools package.
data_MoWSe3S
_symmetry_space_group_name_H-M  'Cm'
_cell_length_a       3.29271
_cell_length_b       3.29318
_cell_length_c       31.3624
_cell_angle_alpha    90.1329
_cell_angle_beta     90
_cell_angle_gamma    119.995

_symmetry_Int_Tables_number  8
_chemical_formula_structural  MoWSe3S
_chemical_formula_sum  Mo2W2Se6S2
_cell_volume  294.5295572245814
_cell_formula_units_Z  2
loop_
  _symmetry_equiv_pos_site_id
 _symmetry_equiv_pos_as_xyz
 1  'x, y, z'
loop_
 _atom_site_type_symbol
 _atom_site_label
 _atom_site_symmetry_multiplicity
 _atom_site_fract_x
 _atom_site_fract_y
 _atom_site_fract_z
 _atom_site_fract_occupancy
 Mo  Mo1  1  0.33867  0.67734  0.06436  1
 Mo  Mo2  1  0.32338  0.64676  0.47964  1
 S  S1  1  0.65581  0.31161  0.43069  1
 S  S2  1  0.65763  0.31525  0.52859  1
 Se  Se1  1  0.33396  0.66792  0.32987  1
 Se  Se2  1  0.33931  0.67863  0.73709  1
 Se  Se3  1  0.67174  0.34347  0.01067  1
 Se  Se4  1  0.67229  0.34458  0.11812  1
 Se  Se5  1  0.33208  0.66415  0.22176  1
 Se  Se6  1  0.33718  0.67435  0.62903  1
 W  W1  1  0.66633  0.33265  0.27582  1
 W  W2  1  0.67164  0.34328  0.68309  1
