CIF file written using JARVIS-Tools package.
data_CrSbSe3
_symmetry_space_group_name_H-M  'Pnma'
_cell_length_a       3.83412
_cell_length_b       9.29405
_cell_length_c       13.3808
_cell_angle_alpha    90
_cell_angle_beta     90
_cell_angle_gamma    90

_symmetry_Int_Tables_number  62
_chemical_formula_structural  CrSbSe3
_chemical_formula_sum  Cr4Sb4Se2
_cell_volume  476.81866405632815
_cell_formula_units_Z  4
loop_
  _symmetry_equiv_pos_site_id
 _symmetry_equiv_pos_as_xyz
 1  'x, y, z'
loop_
 _atom_site_type_symbol
 _atom_site_label
 _atom_site_symmetry_multiplicity
 _atom_site_fract_x
 _atom_site_fract_y
 _atom_site_fract_z
 _atom_site_fract_occupancy
 Cr  Cr1  1  0.75000  0.65740  0.04333  1
 Cr  Cr2  1  0.25000  0.34260  0.95667  1
 Cr  Cr3  1  0.75000  0.15740  0.45667  1
 Cr  Cr4  1  0.25000  0.84260  0.54333  1
 Sb  Sb1  1  0.25000  0.97518  0.15846  1
 Sb  Sb2  1  0.75000  0.02482  0.84154  1
 Sb  Sb3  1  0.25000  0.47518  0.34154  1
 Sb  Sb4  1  0.75000  0.52482  0.65846  1
 Se  Se1  1  0.75000  0.67413  0.48223  1
 Se  Se2  1  0.75000  0.49711  0.89312  1
 Se  Se3  1  0.75000  0.17413  0.01777  1
 Se  Se4  1  0.25000  0.82587  0.98223  1
 Se  Se5  1  0.25000  0.32587  0.51777  1
 Se  Se6  1  0.75000  0.99711  0.60688  1
 Se  Se7  1  0.25000  0.21389  0.78803  1
 Se  Se8  1  0.75000  0.78611  0.21197  1
 Se  Se9  1  0.25000  0.71389  0.71197  1
 Se  Se10  1  0.25000  0.00289  0.39312  1
 Se  Se11  1  0.75000  0.28611  0.28803  1
 Se  Se12  1  0.25000  0.50289  0.10688  1
