CIF file written using JARVIS-Tools package.
data_H2W2O7
_symmetry_space_group_name_H-M  'I4_1/amd'
_cell_length_a       7.32927
_cell_length_b       7.29766
_cell_length_c       7.29766
_cell_angle_alpha    60.2868
_cell_angle_beta     59.8566
_cell_angle_gamma    59.8566

_symmetry_Int_Tables_number  141
_chemical_formula_structural  H2W2O7
_chemical_formula_sum  H4W4O4
_cell_volume  275.99260189323684
_cell_formula_units_Z  2
loop_
  _symmetry_equiv_pos_site_id
 _symmetry_equiv_pos_as_xyz
 1  'x, y, z'
loop_
 _atom_site_type_symbol
 _atom_site_label
 _atom_site_symmetry_multiplicity
 _atom_site_fract_x
 _atom_site_fract_y
 _atom_site_fract_z
 _atom_site_fract_occupancy
 H  H1  1  0.53218  0.71782  0.71782  1
 H  H2  1  0.71782  0.53218  0.53218  1
 H  H3  1  0.46782  0.28218  0.28218  1
 H  H4  1  0.28218  0.46782  0.46782  1
 O  O1  1  0.68918  0.06082  0.06082  1
 O  O2  1  0.06082  0.68918  0.68918  1
 O  O3  1  0.62500  0.62500  0.62500  1
 O  O4  1  0.69393  0.69393  0.05607  1
 O  O5  1  0.05607  0.69393  0.05607  1
 O  O6  1  0.05607  0.05607  0.69393  1
 O  O7  1  0.31082  0.93918  0.93918  1
 O  O8  1  0.93918  0.31082  0.31082  1
 O  O9  1  0.30607  0.30607  0.94393  1
 O  O10  1  0.69393  0.05607  0.69393  1
 O  O11  1  0.94393  0.30607  0.94393  1
 O  O12  1  0.30607  0.94393  0.30607  1
 O  O13  1  0.94393  0.94393  0.30607  1
 O  O14  1  0.37500  0.37500  0.37500  1
 W  W1  1  0.00000  0.00000  0.00000  1
 W  W2  1  0.50000  0.00000  -0.00000  1
 W  W3  1  0.00000  -0.00000  0.50000  1
 W  W4  1  0.00000  0.50000  -0.00000  1
