CIF file written using JARVIS-Tools package.
data_Li2VAsCO7
_symmetry_space_group_name_H-M  'P2_1/m'
_cell_length_a       5.0112
_cell_length_b       6.52631
_cell_length_c       8.61715
_cell_angle_alpha    90
_cell_angle_beta     93.4473
_cell_angle_gamma    90

_symmetry_Int_Tables_number  11
_chemical_formula_structural  Li2VAsCO7
_chemical_formula_sum  Li4V2As2C2O4
_cell_volume  281.31074751429446
_cell_formula_units_Z  2
loop_
  _symmetry_equiv_pos_site_id
 _symmetry_equiv_pos_as_xyz
 1  'x, y, z'
loop_
 _atom_site_type_symbol
 _atom_site_label
 _atom_site_symmetry_multiplicity
 _atom_site_fract_x
 _atom_site_fract_y
 _atom_site_fract_z
 _atom_site_fract_occupancy
 As  As1  1  0.28686  0.75000  0.41591  1
 As  As2  1  0.71314  0.25000  0.58409  1
 C  C1  1  0.27504  0.25000  0.04870  1
 C  C2  1  0.72496  0.75000  0.95130  1
 Li  Li1  1  0.78041  0.48965  0.20738  1
 Li  Li2  1  0.78041  0.01035  0.20738  1
 Li  Li3  1  0.21959  0.51035  0.79262  1
 Li  Li4  1  0.21959  0.98965  0.79262  1
 O  O1  1  0.68772  0.75000  0.09510  1
 O  O2  1  0.96274  0.75000  0.89558  1
 O  O3  1  0.47332  0.25000  0.15737  1
 O  O4  1  0.17279  0.95514  0.30664  1
 O  O5  1  0.17279  0.54486  0.30664  1
 O  O6  1  0.03726  0.25000  0.10442  1
 O  O7  1  0.63064  0.75000  0.44599  1
 O  O8  1  0.82721  0.04486  0.69336  1
 O  O9  1  0.16539  0.75000  0.60011  1
 O  O10  1  0.82721  0.45514  0.69336  1
 O  O11  1  0.83461  0.25000  0.39989  1
 O  O12  1  0.52668  0.75000  0.84263  1
 O  O13  1  0.36936  0.25000  0.55401  1
 O  O14  1  0.31228  0.25000  0.90490  1
 V  V1  1  0.79546  0.75000  0.66768  1
 V  V2  1  0.20454  0.25000  0.33232  1
