CIF file written using JARVIS-Tools package.
data_SrZrS3
_symmetry_space_group_name_H-M  'Pnma'
_cell_length_a       6.74235
_cell_length_b       7.16405
_cell_length_c       9.80107
_cell_angle_alpha    90
_cell_angle_beta     90
_cell_angle_gamma    90

_symmetry_Int_Tables_number  62
_chemical_formula_structural  SrZrS3
_chemical_formula_sum  Sr4Zr4S2
_cell_volume  473.41613414551637
_cell_formula_units_Z  4
loop_
  _symmetry_equiv_pos_site_id
 _symmetry_equiv_pos_as_xyz
 1  'x, y, z'
loop_
 _atom_site_type_symbol
 _atom_site_label
 _atom_site_symmetry_multiplicity
 _atom_site_fract_x
 _atom_site_fract_y
 _atom_site_fract_z
 _atom_site_fract_occupancy
 S  S1  1  0.18980  0.30467  0.44922  1
 S  S2  1  0.40008  0.51971  0.75000  1
 S  S3  1  0.31020  0.80467  0.05078  1
 S  S4  1  0.09992  0.01971  0.75000  1
 S  S5  1  0.59992  0.48029  0.25000  1
 S  S6  1  0.90008  0.98029  0.25000  1
 S  S7  1  0.68980  0.19533  0.94922  1
 S  S8  1  0.31020  0.80467  0.44922  1
 S  S9  1  0.81020  0.69533  0.55078  1
 S  S10  1  0.81020  0.69533  0.94922  1
 S  S11  1  0.68980  0.19533  0.55078  1
 S  S12  1  0.18980  0.30467  0.05078  1
 Sr  Sr1  1  0.52576  0.91824  0.75000  1
 Sr  Sr2  1  0.02576  0.58176  0.25000  1
 Sr  Sr3  1  0.97424  0.41824  0.75000  1
 Sr  Sr4  1  0.47424  0.08176  0.25000  1
 Zr  Zr1  1  0.00000  0.00000  0.50000  1
 Zr  Zr2  1  0.50000  0.50000  0.50000  1
 Zr  Zr3  1  0.50000  0.50000  0.00000  1
 Zr  Zr4  1  0.00000  0.00000  0.00000  1
