CIF file written using JARVIS-Tools package.
data_Hg2W2O7
_symmetry_space_group_name_H-M  'P2/c'
_cell_length_a       6.19629
_cell_length_b       3.88458
_cell_length_c       14.5792
_cell_angle_alpha    90
_cell_angle_beta     104.357
_cell_angle_gamma    90

_symmetry_Int_Tables_number  13
_chemical_formula_structural  Hg2W2O7
_chemical_formula_sum  Hg4W4O4
_cell_volume  339.9610844853972
_cell_formula_units_Z  2
loop_
  _symmetry_equiv_pos_site_id
 _symmetry_equiv_pos_as_xyz
 1  'x, y, z'
loop_
 _atom_site_type_symbol
 _atom_site_label
 _atom_site_symmetry_multiplicity
 _atom_site_fract_x
 _atom_site_fract_y
 _atom_site_fract_z
 _atom_site_fract_occupancy
 Hg  Hg1  1  0.64975  0.65990  0.56241  1
 Hg  Hg2  1  0.64975  0.34010  0.06241  1
 Hg  Hg3  1  0.35025  0.65990  0.93759  1
 Hg  Hg4  1  0.35025  0.34010  0.43759  1
 O  O1  1  0.20501  0.03051  0.06759  1
 O  O2  1  0.80865  0.47426  0.80094  1
 O  O3  1  0.19135  0.52574  0.19906  1
 O  O4  1  0.86848  0.96664  0.66867  1
 O  O5  1  0.79499  0.03051  0.43241  1
 O  O6  1  0.50000  0.03939  0.25000  1
 O  O7  1  0.80865  0.52574  0.30094  1
 O  O8  1  0.19135  0.47426  0.69906  1
 O  O9  1  0.20501  0.96949  0.56759  1
 O  O10  1  0.13152  0.96664  0.83133  1
 O  O11  1  0.13152  0.03336  0.33133  1
 O  O12  1  0.50000  0.96061  0.75000  1
 O  O13  1  0.86848  0.03336  0.16867  1
 O  O14  1  0.79499  0.96949  0.93241  1
 W  W1  1  0.80937  0.00793  0.81442  1
 W  W2  1  0.19063  0.00793  0.68558  1
 W  W3  1  0.80937  0.99207  0.31442  1
 W  W4  1  0.19063  0.99207  0.18558  1
