CIF file written using JARVIS-Tools package.
data_ThSi
_symmetry_space_group_name_H-M  'Pnma'
_cell_length_a       4.19573
_cell_length_b       5.93051
_cell_length_c       7.95919
_cell_angle_alpha    90
_cell_angle_beta     90
_cell_angle_gamma    90

_symmetry_Int_Tables_number  62
_chemical_formula_structural  ThSi
_chemical_formula_sum  Th4Si4
_cell_volume  198.04744156639174
_cell_formula_units_Z  4
loop_
  _symmetry_equiv_pos_site_id
 _symmetry_equiv_pos_as_xyz
 1  'x, y, z'
loop_
 _atom_site_type_symbol
 _atom_site_label
 _atom_site_symmetry_multiplicity
 _atom_site_fract_x
 _atom_site_fract_y
 _atom_site_fract_z
 _atom_site_fract_occupancy
 Si  Si1  1  0.25000  0.63233  0.03962  1
 Si  Si2  1  0.75000  0.36767  0.96038  1
 Si  Si3  1  0.75000  0.13233  0.46038  1
 Si  Si4  1  0.25000  0.86767  0.53962  1
 Th  Th1  1  0.25000  0.12544  0.17994  1
 Th  Th2  1  0.75000  0.87456  0.82006  1
 Th  Th3  1  0.75000  0.62544  0.32006  1
 Th  Th4  1  0.25000  0.37456  0.67994  1
