CIF file written using JARVIS-Tools package.
data_LiNO3
_symmetry_space_group_name_H-M  'R-3c'
_cell_length_a       5.6599
_cell_length_b       5.6599
_cell_length_c       5.65991
_cell_angle_alpha    49.0876
_cell_angle_beta     49.0876
_cell_angle_gamma    49.0876

_symmetry_Int_Tables_number  167
_chemical_formula_structural  LiNO3
_chemical_formula_sum  Li2N2O6
_cell_volume  95.09412519045343
_cell_formula_units_Z  2
loop_
  _symmetry_equiv_pos_site_id
 _symmetry_equiv_pos_as_xyz
 1  'x, y, z'
loop_
 _atom_site_type_symbol
 _atom_site_label
 _atom_site_symmetry_multiplicity
 _atom_site_fract_x
 _atom_site_fract_y
 _atom_site_fract_z
 _atom_site_fract_occupancy
 Li  Li1  1  0.00000  0.00000  0.00000  1
 Li  Li2  1  0.50000  0.50000  0.50000  1
 N  N1  1  0.25000  0.25000  0.25000  1
 N  N2  1  0.75000  0.75000  0.75000  1
 O  O1  1  0.51926  0.98074  0.25000  1
 O  O2  1  0.25000  0.51926  0.98074  1
 O  O3  1  0.98074  0.25000  0.51926  1
 O  O4  1  0.48074  0.01926  0.75000  1
 O  O5  1  0.75000  0.48074  0.01926  1
 O  O6  1  0.01926  0.75000  0.48074  1
