CIF file written using JARVIS-Tools package.
data_NdAgPb
_symmetry_space_group_name_H-M  'P6_3mc'
_cell_length_a       4.87453
_cell_length_b       4.87453
_cell_length_c       7.69721
_cell_angle_alpha    90
_cell_angle_beta     90
_cell_angle_gamma    120

_symmetry_Int_Tables_number  186
_chemical_formula_structural  NdAgPb
_chemical_formula_sum  Nd2Ag2Pb2
_cell_volume  158.3910430557425
_cell_formula_units_Z  2
loop_
  _symmetry_equiv_pos_site_id
 _symmetry_equiv_pos_as_xyz
 1  'x, y, z'
loop_
 _atom_site_type_symbol
 _atom_site_label
 _atom_site_symmetry_multiplicity
 _atom_site_fract_x
 _atom_site_fract_y
 _atom_site_fract_z
 _atom_site_fract_occupancy
 Ag  Ag1  1  0.66667  0.33333  0.67962  1
 Ag  Ag2  1  0.33333  0.66667  0.17962  1
 Nd  Nd1  1  0.00000  0.00000  0.98808  1
 Nd  Nd2  1  0.00000  0.00000  0.48808  1
 Pb  Pb1  1  0.33333  0.66667  0.76880  1
 Pb  Pb2  1  0.66667  0.33333  0.26880  1
