CIF file written using JARVIS-Tools package.
data_MoH2O4
_symmetry_space_group_name_H-M  'P-1'
_cell_length_a       3.8592
_cell_length_b       5.73344
_cell_length_c       7.41913
_cell_angle_alpha    104.706
_cell_angle_beta     91.3495
_cell_angle_gamma    109.892

_symmetry_Int_Tables_number  2
_chemical_formula_structural  MoH2O4
_chemical_formula_sum  Mo2H4O8
_cell_volume  148.21411783775096
_cell_formula_units_Z  2
loop_
  _symmetry_equiv_pos_site_id
 _symmetry_equiv_pos_as_xyz
 1  'x, y, z'
loop_
 _atom_site_type_symbol
 _atom_site_label
 _atom_site_symmetry_multiplicity
 _atom_site_fract_x
 _atom_site_fract_y
 _atom_site_fract_z
 _atom_site_fract_occupancy
 H  H1  1  0.31835  0.62638  0.17690  1
 H  H2  1  0.68165  0.37362  0.82310  1
 H  H3  1  0.76650  0.52193  0.17290  1
 H  H4  1  0.23350  0.47807  0.82710  1
 Mo  Mo1  1  0.26734  0.09413  0.22788  1
 Mo  Mo2  1  0.73266  0.90587  0.77212  1
 O  O1  1  0.33714  0.19703  0.46361  1
 O  O2  1  0.66286  0.80297  0.53639  1
 O  O3  1  0.20369  0.93584  0.83928  1
 O  O4  1  0.79631  0.06416  0.16072  1
 O  O5  1  0.15334  0.73121  0.18189  1
 O  O6  1  0.84666  0.26879  0.81811  1
 O  O7  1  0.49565  0.40624  0.16453  1
 O  O8  1  0.50435  0.59376  0.83547  1
