CIF file written using JARVIS-Tools package.
data_Cd2SnO4
_symmetry_space_group_name_H-M  'Pbam'
_cell_length_a       3.23568
_cell_length_b       5.64335
_cell_length_c       10.0635
_cell_angle_alpha    90
_cell_angle_beta     90
_cell_angle_gamma    90

_symmetry_Int_Tables_number  55
_chemical_formula_structural  Cd2SnO4
_chemical_formula_sum  Cd4Sn2O8
_cell_volume  183.76061808763382
_cell_formula_units_Z  2
loop_
  _symmetry_equiv_pos_site_id
 _symmetry_equiv_pos_as_xyz
 1  'x, y, z'
loop_
 _atom_site_type_symbol
 _atom_site_label
 _atom_site_symmetry_multiplicity
 _atom_site_fract_x
 _atom_site_fract_y
 _atom_site_fract_z
 _atom_site_fract_occupancy
 Cd  Cd1  1  0.50000  0.05897  0.32395  1
 Cd  Cd2  1  0.50000  0.94103  0.67605  1
 Cd  Cd3  1  0.50000  0.44103  0.82395  1
 Cd  Cd4  1  0.50000  0.55897  0.17605  1
 O  O1  1  0.00000  0.13522  0.80779  1
 O  O2  1  0.00000  0.86478  0.19221  1
 O  O3  1  0.00000  0.63522  0.69221  1
 O  O4  1  0.00000  0.36478  0.30779  1
 O  O5  1  0.50000  0.26431  0.53951  1
 O  O6  1  0.50000  0.73569  0.46049  1
 O  O7  1  0.50000  0.23569  0.03951  1
 O  O8  1  0.50000  0.76431  0.96049  1
 Sn  Sn1  1  0.00000  0.00000  0.00000  1
 Sn  Sn2  1  0.00000  0.50000  0.50000  1
