CIF file written using JARVIS-Tools package.
data_V2O3F
_symmetry_space_group_name_H-M  'Amm2'
_cell_length_a       4.64458
_cell_length_b       4.64458
_cell_length_c       2.91914
_cell_angle_alpha    90
_cell_angle_beta     90
_cell_angle_gamma    93.1394

_symmetry_Int_Tables_number  38
_chemical_formula_structural  V2O3F
_chemical_formula_sum  V2O3F
_cell_volume  62.87744664639492
_cell_formula_units_Z  1
loop_
  _symmetry_equiv_pos_site_id
 _symmetry_equiv_pos_as_xyz
 1  'x, y, z'
loop_
 _atom_site_type_symbol
 _atom_site_label
 _atom_site_symmetry_multiplicity
 _atom_site_fract_x
 _atom_site_fract_y
 _atom_site_fract_z
 _atom_site_fract_occupancy
 F  F1  1  0.79965  0.20035  0.50000  1
 O  O1  1  0.20143  0.79857  0.50000  1
 O  O2  1  0.29765  0.29931  0.00000  1
 O  O3  1  0.70069  0.70235  0.00000  1
 V  V1  1  0.02032  0.97968  0.00000  1
 V  V2  1  0.48026  0.51974  0.50000  1
