CIF file written using JARVIS-Tools package.
data_NaC2N3
_symmetry_space_group_name_H-M  'P2_1/c'
_cell_length_a       3.49625
_cell_length_b       15.186
_cell_length_c       6.96051
_cell_angle_alpha    90
_cell_angle_beta     115.537
_cell_angle_gamma    90

_symmetry_Int_Tables_number  14
_chemical_formula_structural  NaC2N3
_chemical_formula_sum  Na4C8N2
_cell_volume  333.4567304083165
_cell_formula_units_Z  4
loop_
  _symmetry_equiv_pos_site_id
 _symmetry_equiv_pos_as_xyz
 1  'x, y, z'
loop_
 _atom_site_type_symbol
 _atom_site_label
 _atom_site_symmetry_multiplicity
 _atom_site_fract_x
 _atom_site_fract_y
 _atom_site_fract_z
 _atom_site_fract_occupancy
 C  C1  1  0.89864  0.91770  0.15312  1
 C  C2  1  0.89864  0.58230  0.65312  1
 C  C3  1  0.22893  0.27234  0.45872  1
 C  C4  1  0.77107  0.77234  0.04128  1
 C  C5  1  0.77107  0.72766  0.54128  1
 C  C6  1  0.10136  0.41770  0.34688  1
 C  C7  1  0.22893  0.22766  0.95872  1
 C  C8  1  0.10136  0.08230  0.84688  1
 N  N1  1  0.28848  0.14337  0.98460  1
 N  N2  1  0.28848  0.35663  0.48460  1
 N  N3  1  0.79779  0.69495  0.04521  1
 N  N4  1  0.20221  0.19495  0.45479  1
 N  N5  1  0.04803  0.97902  0.26484  1
 N  N6  1  0.79779  0.80505  0.54521  1
 N  N7  1  0.71152  0.64337  0.51540  1
 N  N8  1  0.04803  0.52098  0.76484  1
 N  N9  1  0.95197  0.02098  0.73516  1
 N  N10  1  0.71152  0.85663  0.01540  1
 N  N11  1  0.95197  0.47902  0.23516  1
 N  N12  1  0.20221  0.30505  0.95479  1
 Na  Na1  1  0.37146  0.58760  0.13479  1
 Na  Na2  1  0.62854  0.41240  0.86521  1
 Na  Na3  1  0.62854  0.08760  0.36521  1
 Na  Na4  1  0.37146  0.91240  0.63479  1
