CIF file written using JARVIS-Tools package.
data_K2NaInAs2
_symmetry_space_group_name_H-M  'Ibam'
_cell_length_a       6.73845
_cell_length_b       6.79816
_cell_length_c       9.05686
_cell_angle_alpha    112.043
_cell_angle_beta     111.84
_cell_angle_gamma    90

_symmetry_Int_Tables_number  72
_chemical_formula_structural  K2NaInAs2
_chemical_formula_sum  K4Na2In2As4
_cell_volume  352.22825460157776
_cell_formula_units_Z  2
loop_
  _symmetry_equiv_pos_site_id
 _symmetry_equiv_pos_as_xyz
 1  'x, y, z'
loop_
 _atom_site_type_symbol
 _atom_site_label
 _atom_site_symmetry_multiplicity
 _atom_site_fract_x
 _atom_site_fract_y
 _atom_site_fract_z
 _atom_site_fract_occupancy
 As  As1  1  0.17507  0.39644  0.79287  1
 As  As2  1  0.82493  0.60356  0.20713  1
 As  As3  1  0.38220  0.10356  0.20713  1
 As  As4  1  0.61780  0.89644  0.79287  1
 In  In1  1  0.50000  0.75000  -0.00000  1
 In  In2  1  0.50000  0.25000  0.00000  1
 K  K1  1  0.41507  0.67534  0.35069  1
 K  K2  1  0.06438  0.82466  0.64931  1
 K  K3  1  0.93562  0.17534  0.35069  1
 K  K4  1  0.58493  0.32466  0.64931  1
 Na  Na1  1  0.00000  0.25000  0.00000  1
 Na  Na2  1  -0.00000  0.75000  -0.00000  1
