CIF file written using JARVIS-Tools package.
data_ZnSn2O4
_symmetry_space_group_name_H-M  'Cmcm'
_cell_length_a       3.2093
_cell_length_b       5.59194
_cell_length_c       10.8559
_cell_angle_alpha    90
_cell_angle_beta     90
_cell_angle_gamma    106.676

_symmetry_Int_Tables_number  63
_chemical_formula_structural  ZnSn2O4
_chemical_formula_sum  Zn2Sn4O8
_cell_volume  186.6291097124638
_cell_formula_units_Z  2
loop_
  _symmetry_equiv_pos_site_id
 _symmetry_equiv_pos_as_xyz
 1  'x, y, z'
loop_
 _atom_site_type_symbol
 _atom_site_label
 _atom_site_symmetry_multiplicity
 _atom_site_fract_x
 _atom_site_fract_y
 _atom_site_fract_z
 _atom_site_fract_occupancy
 O  O1  1  0.22852  0.45704  0.38428  1
 O  O2  1  0.77148  0.54296  0.61572  1
 O  O3  1  0.77148  0.54296  0.88428  1
 O  O4  1  0.22852  0.45704  0.11572  1
 O  O5  1  0.98746  0.97493  0.25000  1
 O  O6  1  0.01254  0.02507  0.75000  1
 O  O7  1  0.50000  0.00000  0.00000  1
 O  O8  1  0.50000  0.00000  0.50000  1
 Sn  Sn1  1  0.86848  0.73696  0.07749  1
 Sn  Sn2  1  0.13152  0.26304  0.92251  1
 Sn  Sn3  1  0.86848  0.73696  0.42251  1
 Sn  Sn4  1  0.13152  0.26304  0.57749  1
 Zn  Zn1  1  0.39384  0.78768  0.75000  1
 Zn  Zn2  1  0.60616  0.21232  0.25000  1
