CIF file written using JARVIS-Tools package.
data_Li2NbCr3O8
_symmetry_space_group_name_H-M  'R-3m'
_cell_length_a       5.9566
_cell_length_b       5.95661
_cell_length_c       5.95661
_cell_angle_alpha    59.8863
_cell_angle_beta     59.8863
_cell_angle_gamma    59.8863

_symmetry_Int_Tables_number  166
_chemical_formula_structural  Li2NbCr3O8
_chemical_formula_sum  Li2NbCr3O8
_cell_volume  149.05978429759514
_cell_formula_units_Z  1
loop_
  _symmetry_equiv_pos_site_id
 _symmetry_equiv_pos_as_xyz
 1  'x, y, z'
loop_
 _atom_site_type_symbol
 _atom_site_label
 _atom_site_symmetry_multiplicity
 _atom_site_fract_x
 _atom_site_fract_y
 _atom_site_fract_z
 _atom_site_fract_occupancy
 Cr  Cr1  1  0.00000  0.50000  0.50000  1
 Cr  Cr2  1  0.50000  -0.00000  0.50000  1
 Cr  Cr3  1  0.50000  0.50000  -0.00000  1
 Li  Li1  1  0.12677  0.12677  0.12677  1
 Li  Li2  1  0.87323  0.87323  0.87323  1
 Nb  Nb1  1  0.50000  0.50000  0.50000  1
 O  O1  1  0.26493  0.26493  0.26493  1
 O  O2  1  0.25925  0.25925  0.71950  1
 O  O3  1  0.25925  0.71950  0.25925  1
 O  O4  1  0.71950  0.25925  0.25925  1
 O  O5  1  0.28050  0.74075  0.74075  1
 O  O6  1  0.74075  0.28050  0.74075  1
 O  O7  1  0.74075  0.74075  0.28050  1
 O  O8  1  0.73507  0.73507  0.73507  1
