CIF file written using JARVIS-Tools package.
data_K2TeOF4
_symmetry_space_group_name_H-M  'Cmcm'
_cell_length_a       6.31766
_cell_length_b       6.63291
_cell_length_c       7.40751
_cell_angle_alpha    90
_cell_angle_beta     115.242
_cell_angle_gamma    90

_symmetry_Int_Tables_number  63
_chemical_formula_structural  K2TeOF4
_chemical_formula_sum  K4Te2O2F8
_cell_volume  280.76923891075023
_cell_formula_units_Z  2
loop_
  _symmetry_equiv_pos_site_id
 _symmetry_equiv_pos_as_xyz
 1  'x, y, z'
loop_
 _atom_site_type_symbol
 _atom_site_label
 _atom_site_symmetry_multiplicity
 _atom_site_fract_x
 _atom_site_fract_y
 _atom_site_fract_z
 _atom_site_fract_occupancy
 F  F1  1  0.35155  0.46907  0.22031  1
 F  F2  1  0.13124  0.53093  0.77969  1
 F  F3  1  0.35155  0.03093  0.22031  1
 F  F4  1  0.13124  0.96907  0.77969  1
 F  F5  1  0.64845  0.96907  0.77969  1
 F  F6  1  0.86876  0.03093  0.22031  1
 F  F7  1  0.86876  0.46907  0.22031  1
 F  F8  1  0.64845  0.53093  0.77969  1
 K  K1  1  0.55567  0.75000  0.11133  1
 K  K2  1  0.44433  0.25000  0.88867  1
 K  K3  1  0.24489  0.75000  0.48979  1
 K  K4  1  0.75511  0.25000  0.51021  1
 O  O1  1  0.24149  0.25000  0.48299  1
 O  O2  1  0.75851  0.75000  0.51701  1
 Te  Te1  1  0.89362  0.75000  0.78724  1
 Te  Te2  1  0.10638  0.25000  0.21276  1
