CIF file written using JARVIS-Tools package.
data_MnCo4O8
_symmetry_space_group_name_H-M  'C2/m'
_cell_length_a       5.67586
_cell_length_b       5.66059
_cell_length_c       5.66231
_cell_angle_alpha    88.4176
_cell_angle_beta     120.047
_cell_angle_gamma    120.089

_symmetry_Int_Tables_number  12
_chemical_formula_structural  MnCo4O8
_chemical_formula_sum  MnCo4O8
_cell_volume  130.05111583271415
_cell_formula_units_Z  1
loop_
  _symmetry_equiv_pos_site_id
 _symmetry_equiv_pos_as_xyz
 1  'x, y, z'
loop_
 _atom_site_type_symbol
 _atom_site_label
 _atom_site_symmetry_multiplicity
 _atom_site_fract_x
 _atom_site_fract_y
 _atom_site_fract_z
 _atom_site_fract_occupancy
 Co  Co1  1  -0.00000  0.50000  0.50000  1
 Co  Co2  1  -0.00000  -0.00000  -0.00000  1
 Co  Co3  1  0.50000  0.50000  0.00000  1
 Co  Co4  1  0.00000  0.50000  -0.00000  1
 Mn  Mn1  1  0.50000  -0.00000  0.00000  1
 O  O1  1  0.53399  0.27324  0.79455  1
 O  O2  1  0.02941  0.76338  0.78430  1
 O  O3  1  0.51847  0.76338  0.78432  1
 O  O4  1  0.03469  0.27928  0.78988  1
 O  O5  1  0.96531  0.72072  0.21012  1
 O  O6  1  0.48153  0.23662  0.21568  1
 O  O7  1  0.97060  0.23662  0.21570  1
 O  O8  1  0.46601  0.72676  0.20545  1
