CIF file written using JARVIS-Tools package.
data_Tb2O3
_symmetry_space_group_name_H-M  'C2/m'
_cell_length_a       3.52591
_cell_length_b       7.24138
_cell_length_c       8.69093
_cell_angle_alpha    99.7521
_cell_angle_beta     90
_cell_angle_gamma    104.091

_symmetry_Int_Tables_number  12
_chemical_formula_structural  Tb2O3
_chemical_formula_sum  Tb6O9
_cell_volume  211.91652243011725
_cell_formula_units_Z  3
loop_
  _symmetry_equiv_pos_site_id
 _symmetry_equiv_pos_as_xyz
 1  'x, y, z'
loop_
 _atom_site_type_symbol
 _atom_site_label
 _atom_site_symmetry_multiplicity
 _atom_site_fract_x
 _atom_site_fract_y
 _atom_site_fract_z
 _atom_site_fract_occupancy
 O  O1  1  0.50000  0.00000  0.00000  1
 O  O2  1  0.52834  0.05668  0.65612  1
 O  O3  1  0.47166  0.94332  0.34388  1
 O  O4  1  0.20557  0.41114  0.62437  1
 O  O5  1  0.79443  0.58886  0.37563  1
 O  O6  1  0.17489  0.34978  0.97019  1
 O  O7  1  0.12820  0.25640  0.28303  1
 O  O8  1  0.87180  0.74360  0.71697  1
 O  O9  1  0.82511  0.65022  0.02981  1
 Tb  Tb1  1  0.03316  0.06632  0.81297  1
 Tb  Tb2  1  0.96684  0.93368  0.18703  1
 Tb  Tb3  1  0.30947  0.61893  0.86258  1
 Tb  Tb4  1  0.69053  0.38107  0.13742  1
 Tb  Tb5  1  0.36498  0.72996  0.51269  1
 Tb  Tb6  1  0.63502  0.27004  0.48731  1
