CIF file written using JARVIS-Tools package.
data_LiMnAlO3
_symmetry_space_group_name_H-M  'P-1'
_cell_length_a       5.52315
_cell_length_b       5.32284
_cell_length_c       5.90029
_cell_angle_alpha    89.5211
_cell_angle_beta     122.471
_cell_angle_gamma    114.347

_symmetry_Int_Tables_number  2
_chemical_formula_structural  LiMnAlO3
_chemical_formula_sum  Li2Mn2Al2O6
_cell_volume  128.10886642767082
_cell_formula_units_Z  2
loop_
  _symmetry_equiv_pos_site_id
 _symmetry_equiv_pos_as_xyz
 1  'x, y, z'
loop_
 _atom_site_type_symbol
 _atom_site_label
 _atom_site_symmetry_multiplicity
 _atom_site_fract_x
 _atom_site_fract_y
 _atom_site_fract_z
 _atom_site_fract_occupancy
 Al  Al1  1  0.00856  0.75669  0.92114  1
 Al  Al2  1  -0.00856  0.24331  0.07886  1
 Li  Li1  1  0.31640  0.07635  0.56945  1
 Li  Li2  1  0.68360  0.92365  0.43055  1
 Mn  Mn1  1  0.66664  0.42203  0.26137  1
 Mn  Mn2  1  0.33336  0.57797  0.73863  1
 O  O1  1  0.01551  0.75738  0.61948  1
 O  O2  1  0.70650  0.42614  0.91614  1
 O  O3  1  0.28332  0.07193  0.21871  1
 O  O4  1  0.71668  0.92807  0.78129  1
 O  O5  1  0.29350  0.57386  0.08386  1
 O  O6  1  0.98449  0.24262  0.38052  1
