CIF file written using JARVIS-Tools package.
data_NbSeBr3
_symmetry_space_group_name_H-M  'P2/c'
_cell_length_a       6.61214
_cell_length_b       6.94168
_cell_length_c       12.6423
_cell_angle_alpha    90
_cell_angle_beta     99.1895
_cell_angle_gamma    90

_symmetry_Int_Tables_number  13
_chemical_formula_structural  NbSeBr3
_chemical_formula_sum  Nb4Se4Br2
_cell_volume  572.8239045690109
_cell_formula_units_Z  4
loop_
  _symmetry_equiv_pos_site_id
 _symmetry_equiv_pos_as_xyz
 1  'x, y, z'
loop_
 _atom_site_type_symbol
 _atom_site_label
 _atom_site_symmetry_multiplicity
 _atom_site_fract_x
 _atom_site_fract_y
 _atom_site_fract_z
 _atom_site_fract_occupancy
 Br  Br1  1  0.15828  0.31214  0.04384  1
 Br  Br2  1  0.36563  0.79888  0.07335  1
 Br  Br3  1  0.84172  0.68786  0.95616  1
 Br  Br4  1  0.63437  0.20112  0.92665  1
 Br  Br5  1  0.36563  0.20112  0.57335  1
 Br  Br6  1  0.63437  0.79888  0.42665  1
 Br  Br7  1  0.74276  0.43504  0.19267  1
 Br  Br8  1  0.74276  0.56496  0.69267  1
 Br  Br9  1  0.25724  0.56496  0.80733  1
 Br  Br10  1  0.84172  0.31214  0.45616  1
 Br  Br11  1  0.15828  0.68786  0.54384  1
 Br  Br12  1  0.25724  0.43504  0.30733  1
 Nb  Nb1  1  0.07169  0.35775  0.64959  1
 Nb  Nb2  1  0.92831  0.35775  0.85041  1
 Nb  Nb3  1  0.92831  0.64225  0.35041  1
 Nb  Nb4  1  0.07169  0.64225  0.14959  1
 Se  Se1  1  0.83396  0.08360  0.69972  1
 Se  Se2  1  0.83396  0.91640  0.19972  1
 Se  Se3  1  0.16604  0.91640  0.30028  1
 Se  Se4  1  0.16604  0.08360  0.80028  1
