CIF file written using JARVIS-Tools package.
data_TaBiO4
_symmetry_space_group_name_H-M  'Pnna'
_cell_length_a       5.01409
_cell_length_b       5.71034
_cell_length_c       11.8344
_cell_angle_alpha    90
_cell_angle_beta     90
_cell_angle_gamma    90

_symmetry_Int_Tables_number  52
_chemical_formula_structural  TaBiO4
_chemical_formula_sum  Ta4Bi4O6
_cell_volume  338.8456075293408
_cell_formula_units_Z  4
loop_
  _symmetry_equiv_pos_site_id
 _symmetry_equiv_pos_as_xyz
 1  'x, y, z'
loop_
 _atom_site_type_symbol
 _atom_site_label
 _atom_site_symmetry_multiplicity
 _atom_site_fract_x
 _atom_site_fract_y
 _atom_site_fract_z
 _atom_site_fract_occupancy
 Bi  Bi1  1  0.22759  0.75000  0.50000  1
 Bi  Bi2  1  0.27241  0.75000  0.00000  1
 Bi  Bi3  1  0.77241  0.25000  0.50000  1
 Bi  Bi4  1  0.72759  0.25000  0.00000  1
 O  O1  1  0.99428  0.14199  0.19398  1
 O  O2  1  0.08721  0.08380  0.59828  1
 O  O3  1  0.08721  0.41620  0.40172  1
 O  O4  1  0.41279  0.08380  0.90172  1
 O  O5  1  0.00572  0.85801  0.80602  1
 O  O6  1  0.91279  0.91620  0.40172  1
 O  O7  1  0.91279  0.58380  0.59828  1
 O  O8  1  0.41279  0.41620  0.09828  1
 O  O9  1  0.58721  0.58380  0.90172  1
 O  O10  1  0.00572  0.64199  0.19398  1
 O  O11  1  0.50572  0.35801  0.69398  1
 O  O12  1  0.58721  0.91620  0.09828  1
 O  O13  1  0.99428  0.35801  0.80602  1
 O  O14  1  0.49428  0.85801  0.69398  1
 O  O15  1  0.49428  0.64199  0.30602  1
 O  O16  1  0.50572  0.14199  0.30602  1
 Ta  Ta1  1  0.25000  0.36260  0.25000  1
 Ta  Ta2  1  0.25000  0.13740  0.75000  1
 Ta  Ta3  1  0.75000  0.63740  0.75000  1
 Ta  Ta4  1  0.75000  0.86260  0.25000  1
