CIF file written using JARVIS-Tools package.
data_CaMo2O4
_symmetry_space_group_name_H-M  'Imma'
_cell_length_a       6.23425
_cell_length_b       6.23424
_cell_length_c       5.45484
_cell_angle_alpha    64.0561
_cell_angle_beta     64.0561
_cell_angle_gamma    69.3445

_symmetry_Int_Tables_number  74
_chemical_formula_structural  CaMo2O4
_chemical_formula_sum  Ca2Mo4O8
_cell_volume  167.98174849357176
_cell_formula_units_Z  2
loop_
  _symmetry_equiv_pos_site_id
 _symmetry_equiv_pos_as_xyz
 1  'x, y, z'
loop_
 _atom_site_type_symbol
 _atom_site_label
 _atom_site_symmetry_multiplicity
 _atom_site_fract_x
 _atom_site_fract_y
 _atom_site_fract_z
 _atom_site_fract_occupancy
 Ca  Ca1  1  0.12500  0.62500  0.62500  1
 Ca  Ca2  1  0.62500  0.12500  0.62500  1
 Mo  Mo1  1  0.04453  0.04453  0.95547  1
 Mo  Mo2  1  0.20547  0.20547  0.29453  1
 Mo  Mo3  1  0.62500  0.62500  0.12500  1
 Mo  Mo4  1  0.62500  0.62500  0.62500  1
 O  O1  1  0.39092  0.39092  0.33914  1
 O  O2  1  0.41234  0.87258  0.35754  1
 O  O3  1  0.39092  0.39092  0.87903  1
 O  O4  1  0.87258  0.41234  0.35754  1
 O  O5  1  0.37742  0.83766  0.89246  1
 O  O6  1  0.83766  0.37742  0.89246  1
 O  O7  1  0.85908  0.85908  0.37097  1
 O  O8  1  0.85908  0.85908  0.91086  1
