CIF file written using JARVIS-Tools package.
data_Li3VO4
_symmetry_space_group_name_H-M  'Pmn2_1'
_cell_length_a       4.95593
_cell_length_b       5.43534
_cell_length_c       6.30767
_cell_angle_alpha    90
_cell_angle_beta     90
_cell_angle_gamma    90

_symmetry_Int_Tables_number  31
_chemical_formula_structural  Li3VO4
_chemical_formula_sum  Li6V2O8
_cell_volume  169.91109365760113
_cell_formula_units_Z  2
loop_
  _symmetry_equiv_pos_site_id
 _symmetry_equiv_pos_as_xyz
 1  'x, y, z'
loop_
 _atom_site_type_symbol
 _atom_site_label
 _atom_site_symmetry_multiplicity
 _atom_site_fract_x
 _atom_site_fract_y
 _atom_site_fract_z
 _atom_site_fract_occupancy
 Li  Li1  1  0.00934  0.66740  0.24774  1
 Li  Li2  1  0.50934  0.33260  0.25226  1
 Li  Li3  1  0.50934  0.33260  0.74774  1
 Li  Li4  1  0.00934  0.66740  0.75226  1
 Li  Li5  1  0.00975  0.16815  0.50000  1
 Li  Li6  1  0.50975  0.83185  0.00000  1
 O  O1  1  0.11181  0.32080  0.22684  1
 O  O2  1  0.65198  0.17210  0.00000  1
 O  O3  1  0.11181  0.32080  0.77316  1
 O  O4  1  0.61181  0.67920  0.27316  1
 O  O5  1  0.61181  0.67920  0.72684  1
 O  O6  1  0.61036  0.13403  0.50000  1
 O  O7  1  0.11036  0.86597  0.00000  1
 O  O8  1  0.15198  0.82790  0.50000  1
 V  V1  1  0.00142  0.16953  0.00000  1
 V  V2  1  0.50142  0.83047  0.50000  1
