CIF file written using JARVIS-Tools package.
data_LiV2FeO6
_symmetry_space_group_name_H-M  'C2/c'
_cell_length_a       6.69046
_cell_length_b       6.69046
_cell_length_c       5.52189
_cell_angle_alpha    72.361
_cell_angle_beta     107.639
_cell_angle_gamma    100.721

_symmetry_Int_Tables_number  15
_chemical_formula_structural  LiV2FeO6
_chemical_formula_sum  Li2V4Fe2O2
_cell_volume  223.26586402257848
_cell_formula_units_Z  2
loop_
  _symmetry_equiv_pos_site_id
 _symmetry_equiv_pos_as_xyz
 1  'x, y, z'
loop_
 _atom_site_type_symbol
 _atom_site_label
 _atom_site_symmetry_multiplicity
 _atom_site_fract_x
 _atom_site_fract_y
 _atom_site_fract_z
 _atom_site_fract_occupancy
 Fe  Fe1  1  0.08497  0.08497  0.75000  1
 Fe  Fe2  1  0.91503  0.91503  0.25000  1
 Li  Li1  1  0.26029  0.26029  0.25000  1
 Li  Li2  1  0.73971  0.73971  0.75000  1
 O  O1  1  0.01351  0.81197  0.64581  1
 O  O2  1  0.89412  0.64016  0.22492  1
 O  O3  1  0.18803  0.98649  0.14581  1
 O  O4  1  0.41475  0.70697  0.63301  1
 O  O5  1  0.10588  0.35984  0.77508  1
 O  O6  1  0.29303  0.58525  0.13301  1
 O  O7  1  0.70697  0.41475  0.86699  1
 O  O8  1  0.58525  0.29303  0.36699  1
 O  O9  1  0.35984  0.10588  0.72492  1
 O  O10  1  0.81197  0.01351  0.85419  1
 O  O11  1  0.64016  0.89412  0.27508  1
 O  O12  1  0.98649  0.18803  0.35419  1
 V  V1  1  0.80367  0.38550  0.21657  1
 V  V2  1  0.61450  0.19633  0.71657  1
 V  V3  1  0.38550  0.80367  0.28343  1
 V  V4  1  0.19633  0.61450  0.78343  1
