CIF file written using JARVIS-Tools package.
data_Li2CuSiO4
_symmetry_space_group_name_H-M  'I-42m'
_cell_length_a       4.39724
_cell_length_b       4.39724
_cell_length_c       5.23433
_cell_angle_alpha    65.163
_cell_angle_beta     65.163
_cell_angle_gamma    90

_symmetry_Int_Tables_number  121
_chemical_formula_structural  Li2CuSiO4
_chemical_formula_sum  Li2CuSiO4
_cell_volume  81.41774611706502
_cell_formula_units_Z  1
loop_
  _symmetry_equiv_pos_site_id
 _symmetry_equiv_pos_as_xyz
 1  'x, y, z'
loop_
 _atom_site_type_symbol
 _atom_site_label
 _atom_site_symmetry_multiplicity
 _atom_site_fract_x
 _atom_site_fract_y
 _atom_site_fract_z
 _atom_site_fract_occupancy
 Cu  Cu1  1  0.00000  0.00000  0.00000  1
 Li  Li1  1  0.75000  0.25000  0.50000  1
 Li  Li2  1  0.25000  0.75000  0.50000  1
 O  O1  1  0.60511  0.16986  0.22504  1
 O  O2  1  0.16986  0.60511  0.22504  1
 O  O3  1  0.39489  0.39489  0.77496  1
 O  O4  1  0.83014  0.83014  0.77496  1
 Si  Si1  1  0.50000  0.50000  0.00000  1
