CIF file written using JARVIS-Tools package.
data_NaAsS2
_symmetry_space_group_name_H-M  'P2_1/c'
_cell_length_a       5.62047
_cell_length_b       11.4394
_cell_length_c       5.79047
_cell_angle_alpha    90
_cell_angle_beta     89.5135
_cell_angle_gamma    90

_symmetry_Int_Tables_number  14
_chemical_formula_structural  NaAsS2
_chemical_formula_sum  Na4As4S8
_cell_volume  372.28343737429117
_cell_formula_units_Z  4
loop_
  _symmetry_equiv_pos_site_id
 _symmetry_equiv_pos_as_xyz
 1  'x, y, z'
loop_
 _atom_site_type_symbol
 _atom_site_label
 _atom_site_symmetry_multiplicity
 _atom_site_fract_x
 _atom_site_fract_y
 _atom_site_fract_z
 _atom_site_fract_occupancy
 As  As1  1  0.24940  0.64267  0.05425  1
 As  As2  1  0.25060  0.14267  0.94575  1
 As  As3  1  0.75060  0.35733  0.94575  1
 As  As4  1  0.74940  0.85733  0.05425  1
 Na  Na1  1  0.23706  0.37578  0.49952  1
 Na  Na2  1  0.76294  0.62422  0.50048  1
 Na  Na3  1  0.73706  0.12422  0.49952  1
 Na  Na4  1  0.26294  0.87578  0.50048  1
 S  S1  1  0.33053  0.84419  -0.00678  1
 S  S2  1  0.83053  0.65581  -0.00678  1
 S  S3  1  0.16947  0.34419  0.00678  1
 S  S4  1  0.66947  0.15581  0.00678  1
 S  S5  1  0.76489  0.87477  0.43297  1
 S  S6  1  0.73511  0.37477  0.56703  1
 S  S7  1  0.23511  0.12523  0.56703  1
 S  S8  1  0.26489  0.62523  0.43297  1
