CIF file written using JARVIS-Tools package.
data_KNO3
_symmetry_space_group_name_H-M  'R32'
_cell_length_a       4.52601
_cell_length_b       4.52602
_cell_length_c       4.52602
_cell_angle_alpha    76.0304
_cell_angle_beta     76.0304
_cell_angle_gamma    76.0304

_symmetry_Int_Tables_number  155
_chemical_formula_structural  KNO3
_chemical_formula_sum  KNO3
_cell_volume  85.64465680593922
_cell_formula_units_Z  1
loop_
  _symmetry_equiv_pos_site_id
 _symmetry_equiv_pos_as_xyz
 1  'x, y, z'
loop_
 _atom_site_type_symbol
 _atom_site_label
 _atom_site_symmetry_multiplicity
 _atom_site_fract_x
 _atom_site_fract_y
 _atom_site_fract_z
 _atom_site_fract_occupancy
 K  K1  1  0.50000  0.50000  0.50000  1
 N  N1  1  0.00000  0.00000  0.00000  1
 O  O1  1  0.00000  0.77261  0.22739  1
 O  O2  1  0.22739  -0.00000  0.77261  1
 O  O3  1  0.77261  0.22739  -0.00000  1
