CIF file written using JARVIS-Tools package.
data_ZnH2O2
_symmetry_space_group_name_H-M  'P2_12_12_1'
_cell_length_a       5.79628
_cell_length_b       5.93866
_cell_length_c       5.21592
_cell_angle_alpha    90
_cell_angle_beta     90
_cell_angle_gamma    90

_symmetry_Int_Tables_number  19
_chemical_formula_structural  ZnH2O2
_chemical_formula_sum  Zn4H8O8
_cell_volume  179.54343816817345
_cell_formula_units_Z  4
loop_
  _symmetry_equiv_pos_site_id
 _symmetry_equiv_pos_as_xyz
 1  'x, y, z'
loop_
 _atom_site_type_symbol
 _atom_site_label
 _atom_site_symmetry_multiplicity
 _atom_site_fract_x
 _atom_site_fract_y
 _atom_site_fract_z
 _atom_site_fract_occupancy
 H  H1  1  0.19764  0.42822  0.80947  1
 H  H2  1  0.12470  0.77481  0.63520  1
 H  H3  1  0.87530  0.27481  0.86480  1
 H  H4  1  0.37530  0.22519  0.13520  1
 H  H5  1  0.62470  0.72519  0.36480  1
 H  H6  1  0.30236  0.57178  0.30947  1
 H  H7  1  0.80236  0.92822  0.69053  1
 H  H8  1  0.69764  0.07178  0.19053  1
 O  O1  1  0.38106  0.08653  0.24075  1
 O  O2  1  0.86119  0.12149  0.18327  1
 O  O3  1  0.13881  0.62149  0.31673  1
 O  O4  1  0.36119  0.37851  0.81673  1
 O  O5  1  0.63881  0.87851  0.68327  1
 O  O6  1  0.11894  0.91347  0.74075  1
 O  O7  1  0.61894  0.58653  0.25925  1
 O  O8  1  0.88106  0.41347  0.75925  1
 Zn  Zn1  1  0.11113  0.90000  0.11978  1
 Zn  Zn2  1  0.88887  0.40000  0.38022  1
 Zn  Zn3  1  0.61113  0.60000  0.88022  1
 Zn  Zn4  1  0.38887  0.10000  0.61978  1
