CIF file written using JARVIS-Tools package.
data_CaCO3
_symmetry_space_group_name_H-M  'Pmmn'
_cell_length_a       4.31904
_cell_length_b       4.96265
_cell_length_c       4.94764
_cell_angle_alpha    90
_cell_angle_beta     90
_cell_angle_gamma    90

_symmetry_Int_Tables_number  59
_chemical_formula_structural  CaCO3
_chemical_formula_sum  Ca2C2O6
_cell_volume  106.04702407639212
_cell_formula_units_Z  2
loop_
  _symmetry_equiv_pos_site_id
 _symmetry_equiv_pos_as_xyz
 1  'x, y, z'
loop_
 _atom_site_type_symbol
 _atom_site_label
 _atom_site_symmetry_multiplicity
 _atom_site_fract_x
 _atom_site_fract_y
 _atom_site_fract_z
 _atom_site_fract_occupancy
 C  C1  1  0.98936  0.00000  0.00000  1
 C  C2  1  0.01064  0.50000  0.50000  1
 Ca  Ca1  1  0.60468  0.50000  0.00000  1
 Ca  Ca2  1  0.39532  0.00000  0.50000  1
 O  O1  1  0.13171  0.22777  0.00000  1
 O  O2  1  0.13171  0.77223  0.00000  1
 O  O3  1  0.31364  0.50000  0.50000  1
 O  O4  1  0.68636  0.00000  0.00000  1
 O  O5  1  0.86829  0.27223  0.50000  1
 O  O6  1  0.86829  0.72777  0.50000  1
