CIF file written using JARVIS-Tools package.
data_K2CuF4
_symmetry_space_group_name_H-M  'Cmce'
_cell_length_a       5.76109
_cell_length_b       5.76219
_cell_length_c       7.08561
_cell_angle_alpha    90
_cell_angle_beta     113.987
_cell_angle_gamma    90

_symmetry_Int_Tables_number  64
_chemical_formula_structural  K2CuF4
_chemical_formula_sum  K4Cu2F8
_cell_volume  214.9026487940604
_cell_formula_units_Z  2
loop_
  _symmetry_equiv_pos_site_id
 _symmetry_equiv_pos_as_xyz
 1  'x, y, z'
loop_
 _atom_site_type_symbol
 _atom_site_label
 _atom_site_symmetry_multiplicity
 _atom_site_fract_x
 _atom_site_fract_y
 _atom_site_fract_z
 _atom_site_fract_occupancy
 Cu  Cu1  1  0.00000  0.00000  0.00000  1
 Cu  Cu2  1  0.50000  0.50000  -0.00000  1
 F  F1  1  0.75739  0.24253  0.00000  1
 F  F2  1  0.25739  0.25747  0.00000  1
 F  F3  1  0.74261  0.74253  -0.00000  1
 F  F4  1  0.24261  0.75747  -0.00000  1
 F  F5  1  0.34498  0.50000  0.68996  1
 F  F6  1  0.15502  0.00000  0.31004  1
 F  F7  1  0.84498  0.00000  0.68996  1
 F  F8  1  0.65502  0.50000  0.31004  1
 K  K1  1  0.64373  0.00000  0.28746  1
 K  K2  1  0.85627  0.50000  0.71254  1
 K  K3  1  0.14373  0.50000  0.28746  1
 K  K4  1  0.35627  0.00000  0.71254  1
