CIF file written using JARVIS-Tools package.
data_PrTiGe
_symmetry_space_group_name_H-M  'P4/nmm'
_cell_length_a       4.15439
_cell_length_b       4.15439
_cell_length_c       7.8742
_cell_angle_alpha    90
_cell_angle_beta     90
_cell_angle_gamma    90

_symmetry_Int_Tables_number  129
_chemical_formula_structural  PrTiGe
_chemical_formula_sum  Pr2Ti2Ge2
_cell_volume  135.9005374860846
_cell_formula_units_Z  2
loop_
  _symmetry_equiv_pos_site_id
 _symmetry_equiv_pos_as_xyz
 1  'x, y, z'
loop_
 _atom_site_type_symbol
 _atom_site_label
 _atom_site_symmetry_multiplicity
 _atom_site_fract_x
 _atom_site_fract_y
 _atom_site_fract_z
 _atom_site_fract_occupancy
 Ge  Ge1  1  0.00000  0.50000  0.22234  1
 Ge  Ge2  1  0.50000  0.00000  0.77766  1
 Pr  Pr1  1  0.50000  0.00000  0.34881  1
 Pr  Pr2  1  0.00000  0.50000  0.65119  1
 Ti  Ti1  1  0.00000  0.00000  0.00000  1
 Ti  Ti2  1  0.50000  0.50000  0.00000  1
