CIF file written using JARVIS-Tools package.
data_Na2SnBAsO7
_symmetry_space_group_name_H-M  'P2_1/m'
_cell_length_a       5.42243
_cell_length_b       6.92059
_cell_length_c       9.60377
_cell_angle_alpha    90
_cell_angle_beta     93.7553
_cell_angle_gamma    90

_symmetry_Int_Tables_number  11
_chemical_formula_structural  Na2SnBAsO7
_chemical_formula_sum  Na4Sn2B2As2O4
_cell_volume  359.6207025054556
_cell_formula_units_Z  2
loop_
  _symmetry_equiv_pos_site_id
 _symmetry_equiv_pos_as_xyz
 1  'x, y, z'
loop_
 _atom_site_type_symbol
 _atom_site_label
 _atom_site_symmetry_multiplicity
 _atom_site_fract_x
 _atom_site_fract_y
 _atom_site_fract_z
 _atom_site_fract_occupancy
 As  As1  1  0.26624  0.75000  0.42996  1
 As  As2  1  0.73376  0.25000  0.57004  1
 B  B1  1  0.28571  0.25000  0.08191  1
 B  B2  1  0.71429  0.75000  0.91809  1
 Na  Na1  1  0.76671  0.49080  0.17555  1
 Na  Na2  1  0.76671  0.00920  0.17555  1
 Na  Na3  1  0.23329  0.50920  0.82445  1
 Na  Na4  1  0.23329  0.99080  0.82445  1
 O  O1  1  0.67152  0.75000  0.05133  1
 O  O2  1  0.94882  0.75000  0.85844  1
 O  O3  1  0.47676  0.25000  0.19483  1
 O  O4  1  0.17761  0.94569  0.33084  1
 O  O5  1  0.17761  0.55431  0.33084  1
 O  O6  1  0.05118  0.25000  0.14156  1
 O  O7  1  0.58672  0.75000  0.46367  1
 O  O8  1  0.82239  0.05431  0.66916  1
 O  O9  1  0.13717  0.75000  0.58860  1
 O  O10  1  0.82239  0.44569  0.66916  1
 O  O11  1  0.86283  0.25000  0.41140  1
 O  O12  1  0.52324  0.75000  0.80517  1
 O  O13  1  0.41328  0.25000  0.53633  1
 O  O14  1  0.32848  0.25000  0.94867  1
 Sn  Sn1  1  0.77918  0.75000  0.65818  1
 Sn  Sn2  1  0.22082  0.25000  0.34182  1
