CIF file written using JARVIS-Tools package.
data_SrAl2Pb2
_symmetry_space_group_name_H-M  'I4/mmm'
_cell_length_a       4.42381
_cell_length_b       4.42381
_cell_length_c       7.98704
_cell_angle_alpha    106.078
_cell_angle_beta     106.078
_cell_angle_gamma    90

_symmetry_Int_Tables_number  139
_chemical_formula_structural  SrAl2Pb2
_chemical_formula_sum  SrAl2Pb2
_cell_volume  143.82068643800082
_cell_formula_units_Z  1
loop_
  _symmetry_equiv_pos_site_id
 _symmetry_equiv_pos_as_xyz
 1  'x, y, z'
loop_
 _atom_site_type_symbol
 _atom_site_label
 _atom_site_symmetry_multiplicity
 _atom_site_fract_x
 _atom_site_fract_y
 _atom_site_fract_z
 _atom_site_fract_occupancy
 Al  Al1  1  0.25000  0.75000  0.50000  1
 Al  Al2  1  0.75000  0.25000  0.50000  1
 Pb  Pb1  1  0.37920  0.37920  0.75840  1
 Pb  Pb2  1  0.62080  0.62080  0.24160  1
 Sr  Sr1  1  0.00000  0.00000  0.00000  1
