CIF file written using JARVIS-Tools package.
data_ZrS3
_symmetry_space_group_name_H-M  'P2_1/m'
_cell_length_a       5.16814
_cell_length_b       3.64885
_cell_length_c       9.04672
_cell_angle_alpha    90
_cell_angle_beta     96.989
_cell_angle_gamma    90

_symmetry_Int_Tables_number  11
_chemical_formula_structural  ZrS3
_chemical_formula_sum  Zr2S6
_cell_volume  169.3332733017061
_cell_formula_units_Z  2
loop_
  _symmetry_equiv_pos_site_id
 _symmetry_equiv_pos_as_xyz
 1  'x, y, z'
loop_
 _atom_site_type_symbol
 _atom_site_label
 _atom_site_symmetry_multiplicity
 _atom_site_fract_x
 _atom_site_fract_y
 _atom_site_fract_z
 _atom_site_fract_occupancy
 S  S1  1  0.12192  0.25000  0.33224  1
 S  S2  1  0.87808  0.75000  0.66776  1
 S  S3  1  0.76190  0.75000  0.05450  1
 S  S4  1  0.23810  0.25000  0.94550  1
 S  S5  1  0.47551  0.75000  0.67160  1
 S  S6  1  0.52449  0.25000  0.32840  1
 Zr  Zr1  1  0.71719  0.25000  0.84528  1
 Zr  Zr2  1  0.28281  0.75000  0.15472  1
