CIF file written using JARVIS-Tools package.
data_Mn3Cr2Co3O16
_symmetry_space_group_name_H-M  'Cm'
_cell_length_a       5.62499
_cell_length_b       5.64674
_cell_length_c       8.65265
_cell_angle_alpha    89.9993
_cell_angle_beta     90.4625
_cell_angle_gamma    120.13

_symmetry_Int_Tables_number  8
_chemical_formula_structural  Mn3Cr2Co3O16
_chemical_formula_sum  Mn3Cr2Co3O6
_cell_volume  237.69002632017794
_cell_formula_units_Z  1
loop_
  _symmetry_equiv_pos_site_id
 _symmetry_equiv_pos_as_xyz
 1  'x, y, z'
loop_
 _atom_site_type_symbol
 _atom_site_label
 _atom_site_symmetry_multiplicity
 _atom_site_fract_x
 _atom_site_fract_y
 _atom_site_fract_z
 _atom_site_fract_occupancy
 Co  Co1  1  0.16880  0.83267  0.20876  1
 Co  Co2  1  0.16880  0.33615  0.20876  1
 Co  Co3  1  0.33620  0.16811  0.70835  1
 Cr  Cr1  1  0.32637  0.66320  0.49313  1
 Cr  Cr2  1  0.65994  0.32998  0.99793  1
 Mn  Mn1  1  0.66229  0.83115  0.21383  1
 Mn  Mn2  1  0.83179  0.66311  0.71316  1
 Mn  Mn3  1  0.83179  0.16870  0.71317  1
 O  O1  1  0.17059  0.83044  0.59875  1
 O  O2  1  0.04807  0.52404  0.33480  1
 O  O3  1  0.33231  0.66617  0.09811  1
 O  O4  1  0.96412  0.48207  0.84076  1
 O  O5  1  0.00098  0.00049  0.82048  1
 O  O6  1  0.17059  0.34016  0.59875  1
 O  O7  1  0.00370  0.00185  0.31692  1
 O  O8  1  0.51977  0.47651  0.83926  1
 O  O9  1  0.34125  0.17064  0.10042  1
 O  O10  1  0.66060  0.83031  0.59711  1
 O  O11  1  0.47846  0.95927  0.34003  1
 O  O12  1  0.51977  0.04326  0.83927  1
 O  O13  1  0.66895  0.33449  0.59713  1
 O  O14  1  0.82821  0.65682  0.09841  1
 O  O15  1  0.47845  0.51921  0.34003  1
 O  O16  1  0.82821  0.17141  0.09841  1
