CIF file written using JARVIS-Tools package.
data_Yb4Mg3H14
_symmetry_space_group_name_H-M  'P-62m'
_cell_length_a       6.1611
_cell_length_b       6.1611
_cell_length_c       6.76941
_cell_angle_alpha    90
_cell_angle_beta     90
_cell_angle_gamma    120

_symmetry_Int_Tables_number  189
_chemical_formula_structural  Yb4Mg3H14
_chemical_formula_sum  Yb4Mg3H4
_cell_volume  222.53521083615146
_cell_formula_units_Z  1
loop_
  _symmetry_equiv_pos_site_id
 _symmetry_equiv_pos_as_xyz
 1  'x, y, z'
loop_
 _atom_site_type_symbol
 _atom_site_label
 _atom_site_symmetry_multiplicity
 _atom_site_fract_x
 _atom_site_fract_y
 _atom_site_fract_z
 _atom_site_fract_occupancy
 H  H1  1  0.73514  0.00000  0.50000  1
 H  H2  1  1.00000  0.38675  0.72149  1
 H  H3  1  0.61325  0.61325  0.72149  1
 H  H4  1  0.38675  1.00000  0.72149  1
 H  H5  1  0.33333  0.66667  0.00000  1
 H  H6  1  0.61325  0.61325  0.27851  1
 H  H7  1  1.00000  0.38675  0.27851  1
 H  H8  1  0.00000  0.73514  0.50000  1
 H  H9  1  0.26486  0.26486  0.50000  1
 H  H10  1  0.38675  1.00000  0.27851  1
 H  H11  1  0.66667  0.33333  0.00000  1
 H  H12  1  0.23001  0.23001  0.00000  1
 H  H13  1  0.76999  0.00000  0.00000  1
 H  H14  1  0.00000  0.76999  0.00000  1
 Mg  Mg1  1  0.43730  0.00000  0.00000  1
 Mg  Mg2  1  0.56270  0.56270  0.00000  1
 Mg  Mg3  1  0.00000  0.43730  0.00000  1
 Yb  Yb1  1  0.66667  0.33333  0.50000  1
 Yb  Yb2  1  0.33333  0.66667  0.50000  1
 Yb  Yb3  1  0.00000  0.00000  0.26888  1
 Yb  Yb4  1  0.00000  0.00000  0.73112  1
