CIF file written using JARVIS-Tools package.
data_CoO2
_symmetry_space_group_name_H-M  'P4_2/mnm'
_cell_length_a       5.15639
_cell_length_b       5.15639
_cell_length_c       5.73446
_cell_angle_alpha    56.2166
_cell_angle_beta     56.2166
_cell_angle_gamma    71.9852

_symmetry_Int_Tables_number  136
_chemical_formula_structural  CoO2
_chemical_formula_sum  Co4O8
_cell_volume  105.32658978403126
_cell_formula_units_Z  4
loop_
  _symmetry_equiv_pos_site_id
 _symmetry_equiv_pos_as_xyz
 1  'x, y, z'
loop_
 _atom_site_type_symbol
 _atom_site_label
 _atom_site_symmetry_multiplicity
 _atom_site_fract_x
 _atom_site_fract_y
 _atom_site_fract_z
 _atom_site_fract_occupancy
 Co  Co1  1  0.12499  0.12499  0.87501  1
 Co  Co2  1  0.12501  0.12501  0.37499  1
 Co  Co3  1  0.62500  0.62500  0.12500  1
 Co  Co4  1  0.62500  0.62500  0.62500  1
 O  O1  1  0.31970  0.31970  0.43030  1
 O  O2  1  0.43030  0.81971  0.37500  1
 O  O3  1  0.31970  0.31970  0.93030  1
 O  O4  1  0.81971  0.43030  0.37500  1
 O  O5  1  0.43029  0.81970  0.87500  1
 O  O6  1  0.81970  0.43029  0.87500  1
 O  O7  1  0.93030  0.93030  0.31970  1
 O  O8  1  0.93030  0.93030  0.81970  1
