CIF file written using JARVIS-Tools package.
data_CaPdF4
_symmetry_space_group_name_H-M  'I4/mcm'
_cell_length_a       5.57083
_cell_length_b       5.57083
_cell_length_c       6.5994
_cell_angle_alpha    114.965
_cell_angle_beta     114.965
_cell_angle_gamma    90

_symmetry_Int_Tables_number  140
_chemical_formula_structural  CaPdF4
_chemical_formula_sum  Ca2Pd2F8
_cell_volume  164.32003028515925
_cell_formula_units_Z  2
loop_
  _symmetry_equiv_pos_site_id
 _symmetry_equiv_pos_as_xyz
 1  'x, y, z'
loop_
 _atom_site_type_symbol
 _atom_site_label
 _atom_site_symmetry_multiplicity
 _atom_site_fract_x
 _atom_site_fract_y
 _atom_site_fract_z
 _atom_site_fract_occupancy
 Ca  Ca1  1  0.25000  0.25000  0.50000  1
 Ca  Ca2  1  0.75000  0.75000  0.50000  1
 F  F1  1  0.96005  0.46005  0.27286  1
 F  F2  1  0.68719  0.18719  0.72714  1
 F  F3  1  0.03995  0.53995  0.72714  1
 F  F4  1  0.18719  0.03995  0.72714  1
 F  F5  1  0.31281  0.81281  0.27286  1
 F  F6  1  0.46005  0.31281  0.27286  1
 F  F7  1  0.81281  0.96005  0.27286  1
 F  F8  1  0.53995  0.68719  0.72714  1
 Pd  Pd1  1  0.00000  0.50000  -0.00000  1
 Pd  Pd2  1  0.50000  -0.00000  0.00000  1
