CIF file written using JARVIS-Tools package.
data_ZnCo4O8
_symmetry_space_group_name_H-M  'R-3m'
_cell_length_a       5.85192
_cell_length_b       5.85193
_cell_length_c       5.85193
_cell_angle_alpha    57.5381
_cell_angle_beta     57.538
_cell_angle_gamma    57.5381

_symmetry_Int_Tables_number  166
_chemical_formula_structural  ZnCo4O8
_chemical_formula_sum  ZnCo4O8
_cell_volume  133.68175369978175
_cell_formula_units_Z  1
loop_
  _symmetry_equiv_pos_site_id
 _symmetry_equiv_pos_as_xyz
 1  'x, y, z'
loop_
 _atom_site_type_symbol
 _atom_site_label
 _atom_site_symmetry_multiplicity
 _atom_site_fract_x
 _atom_site_fract_y
 _atom_site_fract_z
 _atom_site_fract_occupancy
 Co  Co1  1  0.50000  1.00000  0.50000  1
 Co  Co2  1  1.00000  0.50000  0.50000  1
 Co  Co3  1  0.50000  0.50000  0.00000  1
 Co  Co4  1  0.00000  0.00000  0.00000  1
 O  O1  1  0.76219  0.27142  0.76219  1
 O  O2  1  0.23781  0.23781  0.72858  1
 O  O3  1  0.23781  0.72858  0.23781  1
 O  O4  1  0.72857  0.23781  0.23781  1
 O  O5  1  0.26963  0.26963  0.26963  1
 O  O6  1  0.73037  0.73037  0.73037  1
 O  O7  1  0.27143  0.76219  0.76219  1
 O  O8  1  0.76219  0.76219  0.27142  1
 Zn  Zn1  1  0.50000  0.50000  0.50000  1
