CIF file written using JARVIS-Tools package.
data_K6HgS4
_symmetry_space_group_name_H-M  'P6_3mc'
_cell_length_a       10.023
_cell_length_b       10.023
_cell_length_c       7.60026
_cell_angle_alpha    90
_cell_angle_beta     90
_cell_angle_gamma    120

_symmetry_Int_Tables_number  186
_chemical_formula_structural  K6HgS4
_chemical_formula_sum  K2Hg2S8
_cell_volume  661.2293251413107
_cell_formula_units_Z  2
loop_
  _symmetry_equiv_pos_site_id
 _symmetry_equiv_pos_as_xyz
 1  'x, y, z'
loop_
 _atom_site_type_symbol
 _atom_site_label
 _atom_site_symmetry_multiplicity
 _atom_site_fract_x
 _atom_site_fract_y
 _atom_site_fract_z
 _atom_site_fract_occupancy
 Hg  Hg1  1  0.33333  0.66667  0.49892  1
 Hg  Hg2  1  0.66667  0.33333  -0.00108  1
 K  K1  1  0.29770  0.14885  0.29608  1
 K  K2  1  0.05504  0.52752  0.12313  1
 K  K3  1  0.47248  0.52752  0.12313  1
 K  K4  1  0.52752  0.47248  0.62313  1
 K  K5  1  0.52752  0.05504  0.62313  1
 K  K6  1  0.94496  0.47248  0.62313  1
 K  K7  1  0.14885  0.85115  0.79608  1
 K  K8  1  0.85115  0.14885  0.29608  1
 K  K9  1  0.85115  0.70230  0.29608  1
 K  K10  1  0.70230  0.85115  0.79608  1
 K  K11  1  0.14885  0.29770  0.79608  1
 K  K12  1  0.47248  0.94496  0.12313  1
 S  S1  1  0.33333  0.66667  0.84854  1
 S  S2  1  0.81142  0.18858  0.89431  1
 S  S3  1  0.62285  0.81142  0.39431  1
 S  S4  1  0.81142  0.62285  0.89431  1
 S  S5  1  0.18858  0.37715  0.39431  1
 S  S6  1  0.37715  0.18858  0.89431  1
 S  S7  1  0.66667  0.33333  0.34854  1
 S  S8  1  0.18858  0.81142  0.39431  1
