CIF file written using JARVIS-Tools package.
data_ZnSO4
_symmetry_space_group_name_H-M  'Pnma'
_cell_length_a       4.78054
_cell_length_b       6.71447
_cell_length_c       8.67417
_cell_angle_alpha    90
_cell_angle_beta     90
_cell_angle_gamma    90

_symmetry_Int_Tables_number  62
_chemical_formula_structural  ZnSO4
_chemical_formula_sum  Zn4S4O6
_cell_volume  278.4303246645269
_cell_formula_units_Z  4
loop_
  _symmetry_equiv_pos_site_id
 _symmetry_equiv_pos_as_xyz
 1  'x, y, z'
loop_
 _atom_site_type_symbol
 _atom_site_label
 _atom_site_symmetry_multiplicity
 _atom_site_fract_x
 _atom_site_fract_y
 _atom_site_fract_z
 _atom_site_fract_occupancy
 O  O1  1  0.77007  0.25000  0.87135  1
 O  O2  1  0.16342  0.43340  0.37501  1
 O  O3  1  0.66342  0.56660  0.12499  1
 O  O4  1  0.83658  0.93340  0.62499  1
 O  O5  1  0.45108  0.25000  0.64721  1
 O  O6  1  0.83658  0.56660  0.62499  1
 O  O7  1  0.33658  0.43340  0.87501  1
 O  O8  1  0.33658  0.06660  0.87501  1
 O  O9  1  0.66342  0.93340  0.12499  1
 O  O10  1  0.22993  0.75000  0.12865  1
 O  O11  1  0.72993  0.25000  0.37135  1
 O  O12  1  0.95108  0.75000  0.85279  1
 O  O13  1  0.27007  0.75000  0.62865  1
 O  O14  1  0.54892  0.75000  0.35279  1
 O  O15  1  0.04892  0.25000  0.14721  1
 O  O16  1  0.16342  0.06660  0.37501  1
 S  S1  1  0.52756  0.75000  0.17888  1
 S  S2  1  0.02756  0.25000  0.32112  1
 S  S3  1  0.47244  0.25000  0.82112  1
 S  S4  1  0.97244  0.75000  0.67888  1
 Zn  Zn1  1  0.00000  0.00000  0.00000  1
 Zn  Zn2  1  0.50000  0.00000  0.50000  1
 Zn  Zn3  1  0.00000  0.50000  0.00000  1
 Zn  Zn4  1  0.50000  0.50000  0.50000  1
