CIF file written using JARVIS-Tools package.
data_Li4Mn3V3Cr2O16
_symmetry_space_group_name_H-M  'Cm'
_cell_length_a       5.7062
_cell_length_b       5.72467
_cell_length_c       9.39287
_cell_angle_alpha    90.0671
_cell_angle_beta     89.9966
_cell_angle_gamma    60.1082

_symmetry_Int_Tables_number  8
_chemical_formula_structural  Li4Mn3V3Cr2O16
_chemical_formula_sum  Li4Mn3V3Cr2O6
_cell_volume  266.0102034522963
_cell_formula_units_Z  1
loop_
  _symmetry_equiv_pos_site_id
 _symmetry_equiv_pos_as_xyz
 1  'x, y, z'
loop_
 _atom_site_type_symbol
 _atom_site_label
 _atom_site_symmetry_multiplicity
 _atom_site_fract_x
 _atom_site_fract_y
 _atom_site_fract_z
 _atom_site_fract_occupancy
 Cr  Cr1  1  0.66566  0.66864  0.49027  1
 Cr  Cr2  1  0.33108  0.33792  0.98796  1
 Li  Li1  1  0.66483  0.67031  0.89261  1
 Li  Li2  1  0.00041  0.99944  0.99352  1
 Li  Li3  1  0.99748  0.00492  0.49710  1
 Li  Li4  1  0.33091  0.33818  0.39519  1
 Mn  Mn1  1  0.83375  0.33259  0.21283  1
 Mn  Mn2  1  0.65593  0.17705  0.71326  1
 Mn  Mn3  1  0.16695  0.17704  0.71326  1
 O  O1  1  0.33504  0.83075  0.60131  1
 O  O2  1  0.99778  0.00434  0.80690  1
 O  O3  1  0.00010  -0.00011  0.30981  1
 O  O4  1  0.47749  0.04495  0.83715  1
 O  O5  1  0.51576  0.96859  0.34723  1
 O  O6  1  0.83414  0.83074  0.60132  1
 O  O7  1  0.67269  0.65472  0.09802  1
 O  O8  1  0.51981  0.52332  0.34148  1
 O  O9  1  0.66370  0.16128  0.09816  1
 O  O10  1  0.48206  0.47992  0.84473  1
 O  O11  1  0.03801  0.47989  0.84475  1
 O  O12  1  0.33801  0.32392  0.59718  1
 O  O13  1  0.95689  0.52337  0.34148  1
 O  O14  1  0.16907  0.66199  0.10230  1
 O  O15  1  0.83043  0.33910  0.60108  1
 O  O16  1  0.17519  0.16127  0.09819  1
 V  V1  1  0.82119  0.82934  0.21415  1
 V  V2  1  0.17637  0.64719  0.71242  1
 V  V3  1  0.34957  0.82933  0.21417  1
