CIF file written using JARVIS-Tools package.
data_NaHgPO4
_symmetry_space_group_name_H-M  'Cmcm'
_cell_length_a       5.57258
_cell_length_b       5.57258
_cell_length_c       6.51631
_cell_angle_alpha    90
_cell_angle_beta     90
_cell_angle_gamma    116.166

_symmetry_Int_Tables_number  63
_chemical_formula_structural  NaHgPO4
_chemical_formula_sum  Na2Hg2P2O8
_cell_volume  181.61776651368004
_cell_formula_units_Z  2
loop_
  _symmetry_equiv_pos_site_id
 _symmetry_equiv_pos_as_xyz
 1  'x, y, z'
loop_
 _atom_site_type_symbol
 _atom_site_label
 _atom_site_symmetry_multiplicity
 _atom_site_fract_x
 _atom_site_fract_y
 _atom_site_fract_z
 _atom_site_fract_occupancy
 Hg  Hg1  1  0.80657  0.19343  0.25000  1
 Hg  Hg2  1  0.19343  0.80657  0.75000  1
 Na  Na1  1  0.50000  0.50000  0.00000  1
 Na  Na2  1  0.50000  0.50000  0.50000  1
 O  O1  1  0.73718  0.83200  0.75000  1
 O  O2  1  0.26282  0.16800  0.25000  1
 O  O3  1  0.83200  0.73718  0.25000  1
 O  O4  1  0.16800  0.26282  0.75000  1
 O  O5  1  0.75259  0.24741  0.93463  1
 O  O6  1  0.24741  0.75259  0.43463  1
 O  O7  1  0.75259  0.24741  0.56537  1
 O  O8  1  0.24741  0.75259  0.06537  1
 P  P1  1  0.13968  0.86032  0.25000  1
 P  P2  1  0.86032  0.13968  0.75000  1
