CIF file written using JARVIS-Tools package.
data_SrAl2Se4
_symmetry_space_group_name_H-M  'Cccm'
_cell_length_a       6.30835
_cell_length_b       6.30834
_cell_length_c       10.9969
_cell_angle_alpha    90
_cell_angle_beta     90
_cell_angle_gamma    120.468

_symmetry_Int_Tables_number  66
_chemical_formula_structural  SrAl2Se4
_chemical_formula_sum  Sr2Al4Se8
_cell_volume  377.19580225358334
_cell_formula_units_Z  2
loop_
  _symmetry_equiv_pos_site_id
 _symmetry_equiv_pos_as_xyz
 1  'x, y, z'
loop_
 _atom_site_type_symbol
 _atom_site_label
 _atom_site_symmetry_multiplicity
 _atom_site_fract_x
 _atom_site_fract_y
 _atom_site_fract_z
 _atom_site_fract_occupancy
 Al  Al1  1  0.24099  0.76145  0.50000  1
 Al  Al2  1  0.75901  0.23855  0.50000  1
 Al  Al3  1  0.76145  0.24099  0.00000  1
 Al  Al4  1  0.23855  0.75901  0.00000  1
 Se  Se1  1  0.00000  0.50000  0.83214  1
 Se  Se2  1  0.00000  0.50000  0.16786  1
 Se  Se3  1  0.50000  0.00000  0.33214  1
 Se  Se4  1  0.65256  0.81771  0.00000  1
 Se  Se5  1  0.34744  0.18229  0.00000  1
 Se  Se6  1  0.81771  0.65256  0.50000  1
 Se  Se7  1  0.18229  0.34744  0.50000  1
 Se  Se8  1  0.50000  0.00000  0.66786  1
 Sr  Sr1  1  0.50000  0.50000  0.75000  1
 Sr  Sr2  1  0.50000  0.50000  0.25000  1
