CIF file written using JARVIS-Tools package.
data_MnO2
_symmetry_space_group_name_H-M  'P6_3mc'
_cell_length_a       5.68512
_cell_length_b       5.6852
_cell_length_c       8.70416
_cell_angle_alpha    89.9974
_cell_angle_beta     90.0012
_cell_angle_gamma    120

_symmetry_Int_Tables_number  186
_chemical_formula_structural  MnO2
_chemical_formula_sum  Mn8O6
_cell_volume  243.63644436033505
_cell_formula_units_Z  8
loop_
  _symmetry_equiv_pos_site_id
 _symmetry_equiv_pos_as_xyz
 1  'x, y, z'
loop_
 _atom_site_type_symbol
 _atom_site_label
 _atom_site_symmetry_multiplicity
 _atom_site_fract_x
 _atom_site_fract_y
 _atom_site_fract_z
 _atom_site_fract_occupancy
 Mn  Mn1  1  0.83019  0.16549  0.78892  1
 Mn  Mn2  1  0.66423  0.33141  0.51412  1
 Mn  Mn3  1  0.33236  0.16550  0.78893  1
 Mn  Mn4  1  0.83018  0.66332  0.78892  1
 Mn  Mn5  1  0.16495  0.33286  0.28893  1
 Mn  Mn6  1  0.33090  0.66476  0.01411  1
 Mn  Mn7  1  0.66277  0.83069  0.28892  1
 Mn  Mn8  1  0.16495  0.83068  0.28892  1
 O  O1  1  0.83130  0.16433  0.40131  1
 O  O2  1  0.51708  0.03712  0.65934  1
 O  O3  1  0.66425  0.33144  0.90021  1
 O  O4  1  0.47805  0.95906  0.15933  1
 O  O5  1  0.99756  0.99808  0.18066  1
 O  O6  1  0.33009  0.16433  0.40130  1
 O  O7  1  0.99758  0.99811  0.68066  1
 O  O8  1  0.47804  0.51760  0.15933  1
 O  O9  1  0.16384  0.33064  0.90130  1
 O  O10  1  0.83129  0.66554  0.40129  1
 O  O11  1  0.95855  0.47859  0.65933  1
 O  O12  1  0.03658  0.51759  0.15933  1
 O  O13  1  0.33089  0.66474  0.40021  1
 O  O14  1  0.66504  0.83183  0.90130  1
 O  O15  1  0.51709  0.47858  0.65933  1
 O  O16  1  0.16383  0.83184  0.90131  1
