CIF file written using JARVIS-Tools package.
data_NdGe2Pt2
_symmetry_space_group_name_H-M  'I4/mmm'
_cell_length_a       4.4354
_cell_length_b       4.43539
_cell_length_c       5.89195
_cell_angle_alpha    112.111
_cell_angle_beta     112.111
_cell_angle_gamma    89.9999

_symmetry_Int_Tables_number  139
_chemical_formula_structural  NdGe2Pt2
_chemical_formula_sum  NdGe2Pt2
_cell_volume  98.12483779954614
_cell_formula_units_Z  1
loop_
  _symmetry_equiv_pos_site_id
 _symmetry_equiv_pos_as_xyz
 1  'x, y, z'
loop_
 _atom_site_type_symbol
 _atom_site_label
 _atom_site_symmetry_multiplicity
 _atom_site_fract_x
 _atom_site_fract_y
 _atom_site_fract_z
 _atom_site_fract_occupancy
 Ge  Ge1  1  0.37373  0.37373  0.74747  1
 Ge  Ge2  1  0.62627  0.62627  0.25253  1
 Nd  Nd1  1  0.00000  0.00000  0.00000  1
 Pt  Pt1  1  0.25000  0.75000  0.50000  1
 Pt  Pt2  1  0.75000  0.25000  0.50000  1
