CIF file written using JARVIS-Tools package.
data_CaTiF5
_symmetry_space_group_name_H-M  'C2/c'
_cell_length_a       5.64099
_cell_length_b       5.64099
_cell_length_c       7.71869
_cell_angle_alpha    70.1105
_cell_angle_beta     70.1105
_cell_angle_gamma    71.9281

_symmetry_Int_Tables_number  15
_chemical_formula_structural  CaTiF5
_chemical_formula_sum  Ca2Ti2F0
_cell_volume  211.86983297296482
_cell_formula_units_Z  2
loop_
  _symmetry_equiv_pos_site_id
 _symmetry_equiv_pos_as_xyz
 1  'x, y, z'
loop_
 _atom_site_type_symbol
 _atom_site_label
 _atom_site_symmetry_multiplicity
 _atom_site_fract_x
 _atom_site_fract_y
 _atom_site_fract_z
 _atom_site_fract_occupancy
 Ca  Ca1  1  0.45679  0.54321  0.75000  1
 Ca  Ca2  1  0.54321  0.45679  0.25000  1
 F  F1  1  0.20487  0.25500  0.87954  1
 F  F2  1  0.74500  0.79513  0.62046  1
 F  F3  1  0.79513  0.74500  0.12046  1
 F  F4  1  0.25500  0.20487  0.37954  1
 F  F5  1  0.09322  0.90678  0.75000  1
 F  F6  1  0.90678  0.09322  0.25000  1
 F  F7  1  0.28634  0.68484  0.46966  1
 F  F8  1  0.31516  0.71366  0.03034  1
 F  F9  1  0.71366  0.31516  0.53034  1
 F  F10  1  0.68484  0.28634  0.96966  1
 Ti  Ti1  1  0.00000  0.00000  0.00000  1
 Ti  Ti2  1  -0.00000  -0.00000  0.50000  1
