CIF file written using JARVIS-Tools package.
data_Li4VFe3O8
_symmetry_space_group_name_H-M  'P1'
_cell_length_a       5.04319
_cell_length_b       5.53177
_cell_length_c       6.40282
_cell_angle_alpha    90.3156
_cell_angle_beta     90.0643
_cell_angle_gamma    90.2438

_symmetry_Int_Tables_number  1
_chemical_formula_structural  Li4VFe3O8
_chemical_formula_sum  Li4VFe3O8
_cell_volume  178.61964783215936
_cell_formula_units_Z  1
loop_
  _symmetry_equiv_pos_site_id
 _symmetry_equiv_pos_as_xyz
 1  'x, y, z'
loop_
 _atom_site_type_symbol
 _atom_site_label
 _atom_site_symmetry_multiplicity
 _atom_site_fract_x
 _atom_site_fract_y
 _atom_site_fract_z
 _atom_site_fract_occupancy
 Fe  Fe1  1  0.98960  0.08554  0.12932  1
 Fe  Fe2  1  0.50362  0.42026  0.62210  1
 Fe  Fe3  1  -0.00472  0.58092  0.37463  1
 Li  Li1  1  0.99144  0.08331  0.61895  1
 Li  Li2  1  0.50118  0.42475  0.12771  1
 Li  Li3  1  0.99366  0.57385  0.87513  1
 Li  Li4  1  0.49955  0.90938  0.37686  1
 O  O1  1  0.37792  0.07144  0.10422  1
 O  O2  1  0.39243  0.07998  0.65102  1
 O  O3  1  0.88518  0.41505  0.12405  1
 O  O4  1  0.88314  0.41614  0.62369  1
 O  O5  1  0.37776  0.57676  0.37815  1
 O  O6  1  0.39342  0.61230  0.86957  1
 O  O7  1  0.88514  0.91312  0.37160  1
 O  O8  1  0.85547  0.91792  0.87688  1
 V  V1  1  0.50162  0.91928  0.87613  1
