CIF file written using JARVIS-Tools package.
data_Li2MgCu2Si4O12
_symmetry_space_group_name_H-M  'P-1'
_cell_length_a       5.23463
_cell_length_b       5.74951
_cell_length_c       7.50456
_cell_angle_alpha    83.9122
_cell_angle_beta     80.0915
_cell_angle_gamma    82.2621

_symmetry_Int_Tables_number  2
_chemical_formula_structural  Li2MgCu2Si4O12
_chemical_formula_sum  Li2MgCu2Si4O2
_cell_volume  219.6700087715384
_cell_formula_units_Z  1
loop_
  _symmetry_equiv_pos_site_id
 _symmetry_equiv_pos_as_xyz
 1  'x, y, z'
loop_
 _atom_site_type_symbol
 _atom_site_label
 _atom_site_symmetry_multiplicity
 _atom_site_fract_x
 _atom_site_fract_y
 _atom_site_fract_z
 _atom_site_fract_occupancy
 Cu  Cu1  1  0.49424  0.83523  0.18360  1
 Cu  Cu2  1  0.50576  0.16477  0.81640  1
 Li  Li1  1  0.91823  0.75680  0.41358  1
 Li  Li2  1  0.08177  0.24320  0.58642  1
 Mg  Mg1  1  0.00000  0.00000  0.00000  1
 O  O1  1  0.22907  0.00032  0.75003  1
 O  O2  1  0.73040  0.14038  0.58113  1
 O  O3  1  0.73717  0.79730  0.94936  1
 O  O4  1  0.26960  0.85962  0.41887  1
 O  O5  1  0.77093  -0.00032  0.24997  1
 O  O6  1  0.23852  0.68033  0.09204  1
 O  O7  1  0.08589  0.57994  0.69314  1
 O  O8  1  0.76148  0.31967  0.90796  1
 O  O9  1  0.59859  0.64430  0.65146  1
 O  O10  1  0.40141  0.35570  0.34854  1
 O  O11  1  0.91411  0.42006  0.30686  1
 O  O12  1  0.26283  0.20270  0.05064  1
 Si  Si1  1  0.69596  0.22556  0.37341  1
 Si  Si2  1  0.21546  0.41404  0.18412  1
 Si  Si3  1  0.78454  0.58596  0.81588  1
 Si  Si4  1  0.30404  0.77444  0.62659  1
