CIF file written using JARVIS-Tools package.
data_HgSO4
_symmetry_space_group_name_H-M  'Pmn2_1'
_cell_length_a       4.83143
_cell_length_b       4.89047
_cell_length_c       6.64937
_cell_angle_alpha    90
_cell_angle_beta     90
_cell_angle_gamma    90

_symmetry_Int_Tables_number  31
_chemical_formula_structural  HgSO4
_chemical_formula_sum  Hg2S2O8
_cell_volume  157.11105404690502
_cell_formula_units_Z  2
loop_
  _symmetry_equiv_pos_site_id
 _symmetry_equiv_pos_as_xyz
 1  'x, y, z'
loop_
 _atom_site_type_symbol
 _atom_site_label
 _atom_site_symmetry_multiplicity
 _atom_site_fract_x
 _atom_site_fract_y
 _atom_site_fract_z
 _atom_site_fract_occupancy
 Hg  Hg1  1  0.82147  0.75037  0.50000  1
 Hg  Hg2  1  0.17853  0.25037  0.00000  1
 O  O1  1  0.81168  0.60578  0.82299  1
 O  O2  1  0.18832  0.10578  0.67701  1
 O  O3  1  0.18832  0.10578  0.32299  1
 O  O4  1  0.81168  0.60578  0.17701  1
 O  O5  1  0.37278  0.68716  0.00000  1
 O  O6  1  0.62722  0.18716  0.50000  1
 O  O7  1  0.71447  0.03934  0.00000  1
 O  O8  1  0.28553  0.53934  0.50000  1
 S  S1  1  0.32449  0.23946  0.50000  1
 S  S2  1  0.67551  0.73946  0.00000  1
