CIF file written using JARVIS-Tools package.
data_NbW3Se8
_symmetry_space_group_name_H-M  'Imm2'
_cell_length_a       13.5176
_cell_length_b       13.5176
_cell_length_c       13.5174
_cell_angle_alpha    165.681
_cell_angle_beta     28.8802
_cell_angle_gamma    155.053

_symmetry_Int_Tables_number  44
_chemical_formula_structural  NbW3Se8
_chemical_formula_sum  NbW3Se8
_cell_volume  257.5479631181606
_cell_formula_units_Z  1
loop_
  _symmetry_equiv_pos_site_id
 _symmetry_equiv_pos_as_xyz
 1  'x, y, z'
loop_
 _atom_site_type_symbol
 _atom_site_label
 _atom_site_symmetry_multiplicity
 _atom_site_fract_x
 _atom_site_fract_y
 _atom_site_fract_z
 _atom_site_fract_occupancy
 Nb  Nb1  1  0.54955  0.67463  0.87508  1
 Se  Se1  1  0.14066  0.32911  0.81164  1
 Se  Se2  1  0.72795  0.66652  0.06129  1
 Se  Se3  1  0.85535  0.66663  0.18854  1
 Se  Se4  1  0.26748  0.32917  0.93850  1
 Se  Se5  1  0.64647  0.33744  0.30911  1
 Se  Se6  1  0.22810  0.66666  0.56131  1
 Se  Se7  1  0.35522  0.66649  0.68855  1
 Se  Se8  1  0.77833  0.33750  0.44103  1
 W  W1  1  0.95835  0.33329  0.62492  1
 W  W2  1  0.03418  0.65925  0.37507  1
 W  W3  1  0.45838  0.33329  0.12495  1
