CIF file written using JARVIS-Tools package.
data_SmInIr
_symmetry_space_group_name_H-M  'P-62m'
_cell_length_a       7.56494
_cell_length_b       7.56494
_cell_length_c       4.02689
_cell_angle_alpha    90
_cell_angle_beta     90
_cell_angle_gamma    120

_symmetry_Int_Tables_number  189
_chemical_formula_structural  SmInIr
_chemical_formula_sum  Sm3In3Ir3
_cell_volume  199.57780079420897
_cell_formula_units_Z  3
loop_
  _symmetry_equiv_pos_site_id
 _symmetry_equiv_pos_as_xyz
 1  'x, y, z'
loop_
 _atom_site_type_symbol
 _atom_site_label
 _atom_site_symmetry_multiplicity
 _atom_site_fract_x
 _atom_site_fract_y
 _atom_site_fract_z
 _atom_site_fract_occupancy
 In  In1  1  0.00000  0.74528  0.50000  1
 In  In2  1  0.25472  0.25472  0.50000  1
 In  In3  1  0.74528  0.00000  0.50000  1
 Ir  Ir1  1  0.00000  0.00000  0.00000  1
 Ir  Ir2  1  0.66667  0.33333  0.50000  1
 Ir  Ir3  1  0.33333  0.66667  0.50000  1
 Sm  Sm1  1  0.59248  0.59248  0.00000  1
 Sm  Sm2  1  0.40752  0.00000  0.00000  1
 Sm  Sm3  1  0.00000  0.40752  0.00000  1
