CIF file written using JARVIS-Tools package.
data_NaMnSb
_symmetry_space_group_name_H-M  'P4/nmm'
_cell_length_a       4.39319
_cell_length_b       4.39319
_cell_length_c       7.41788
_cell_angle_alpha    90
_cell_angle_beta     90
_cell_angle_gamma    90

_symmetry_Int_Tables_number  129
_chemical_formula_structural  NaMnSb
_chemical_formula_sum  Na2Mn2Sb2
_cell_volume  143.16583578126645
_cell_formula_units_Z  2
loop_
  _symmetry_equiv_pos_site_id
 _symmetry_equiv_pos_as_xyz
 1  'x, y, z'
loop_
 _atom_site_type_symbol
 _atom_site_label
 _atom_site_symmetry_multiplicity
 _atom_site_fract_x
 _atom_site_fract_y
 _atom_site_fract_z
 _atom_site_fract_occupancy
 Mn  Mn1  1  0.00000  0.00000  0.00000  1
 Mn  Mn2  1  0.50000  0.50000  0.00000  1
 Na  Na1  1  0.00000  0.50000  0.65401  1
 Na  Na2  1  0.50000  0.00000  0.34599  1
 Sb  Sb1  1  0.00000  0.50000  0.21919  1
 Sb  Sb2  1  0.50000  0.00000  0.78081  1
