CIF file written using JARVIS-Tools package.
data_BiF5
_symmetry_space_group_name_H-M  'Cmcm'
_cell_length_a       3.82278
_cell_length_b       5.82541
_cell_length_c       8.8196
_cell_angle_alpha    90
_cell_angle_beta     90
_cell_angle_gamma    109.154

_symmetry_Int_Tables_number  63
_chemical_formula_structural  BiF5
_chemical_formula_sum  Bi2F0
_cell_volume  185.5325770932893
_cell_formula_units_Z  2
loop_
  _symmetry_equiv_pos_site_id
 _symmetry_equiv_pos_as_xyz
 1  'x, y, z'
loop_
 _atom_site_type_symbol
 _atom_site_label
 _atom_site_symmetry_multiplicity
 _atom_site_fract_x
 _atom_site_fract_y
 _atom_site_fract_z
 _atom_site_fract_occupancy
 Bi  Bi1  1  0.50000  0.00000  0.50000  1
 Bi  Bi2  1  0.50000  0.00000  0.00000  1
 F  F1  1  0.46237  0.92473  0.25000  1
 F  F2  1  0.53763  0.07527  0.75000  1
 F  F3  1  0.08396  0.16792  0.58391  1
 F  F4  1  0.91604  0.83208  0.41609  1
 F  F5  1  0.33127  0.66254  0.90864  1
 F  F6  1  0.66873  0.33746  0.09136  1
 F  F7  1  0.66873  0.33746  0.40864  1
 F  F8  1  0.33127  0.66254  0.59136  1
 F  F9  1  0.08396  0.16792  0.91609  1
 F  F10  1  0.91604  0.83208  0.08391  1
