CIF file written using JARVIS-Tools package.
data_Al2CO
_symmetry_space_group_name_H-M  'Pna2_1'
_cell_length_a       5.12392
_cell_length_b       5.63833
_cell_length_c       6.31065
_cell_angle_alpha    90
_cell_angle_beta     90
_cell_angle_gamma    90

_symmetry_Int_Tables_number  33
_chemical_formula_structural  Al2CO
_chemical_formula_sum  Al8C4O4
_cell_volume  182.31699980661202
_cell_formula_units_Z  4
loop_
  _symmetry_equiv_pos_site_id
 _symmetry_equiv_pos_as_xyz
 1  'x, y, z'
loop_
 _atom_site_type_symbol
 _atom_site_label
 _atom_site_symmetry_multiplicity
 _atom_site_fract_x
 _atom_site_fract_y
 _atom_site_fract_z
 _atom_site_fract_occupancy
 Al  Al1  1  0.10445  0.41964  0.88219  1
 Al  Al2  1  0.59846  0.07767  0.86622  1
 Al  Al3  1  0.10445  0.91964  0.61781  1
 Al  Al4  1  0.59846  0.57767  0.63378  1
 Al  Al5  1  0.09846  0.42233  0.36622  1
 Al  Al6  1  0.60445  0.08036  0.38219  1
 Al  Al7  1  0.09846  0.92233  0.13378  1
 Al  Al8  1  0.60445  0.58036  0.11781  1
 C  C1  1  0.48262  0.39928  0.87641  1
 C  C2  1  0.48262  0.89928  0.62359  1
 C  C3  1  0.98262  0.10072  0.37641  1
 C  C4  1  0.98262  0.60072  0.12359  1
 O  O1  1  0.98046  0.07960  0.87600  1
 O  O2  1  0.98046  0.57960  0.62400  1
 O  O3  1  0.48046  0.42040  0.37600  1
 O  O4  1  0.48046  0.92040  0.12400  1
