CIF file written using JARVIS-Tools package.
data_CaFe2O4
_symmetry_space_group_name_H-M  'Imma'
_cell_length_a       6.10605
_cell_length_b       6.10604
_cell_length_c       5.94577
_cell_angle_alpha    60.8646
_cell_angle_beta     60.8647
_cell_angle_gamma    60.6126

_symmetry_Int_Tables_number  74
_chemical_formula_structural  CaFe2O4
_chemical_formula_sum  Ca2Fe4O8
_cell_volume  159.5100567629218
_cell_formula_units_Z  2
loop_
  _symmetry_equiv_pos_site_id
 _symmetry_equiv_pos_as_xyz
 1  'x, y, z'
loop_
 _atom_site_type_symbol
 _atom_site_label
 _atom_site_symmetry_multiplicity
 _atom_site_fract_x
 _atom_site_fract_y
 _atom_site_fract_z
 _atom_site_fract_occupancy
 Ca  Ca1  1  0.12500  0.62500  0.62500  1
 Ca  Ca2  1  0.62500  0.12500  0.62500  1
 Fe  Fe1  1  0.98835  0.98835  0.01165  1
 Fe  Fe2  1  0.26165  0.26165  0.23835  1
 Fe  Fe3  1  0.62500  0.62500  0.12500  1
 Fe  Fe4  1  0.62500  0.62500  0.62500  1
 O  O1  1  0.40346  0.40346  0.33037  1
 O  O2  1  0.41528  0.85584  0.36444  1
 O  O3  1  0.40346  0.40346  0.86272  1
 O  O4  1  0.85584  0.41528  0.36444  1
 O  O5  1  0.39416  0.83472  0.88556  1
 O  O6  1  0.83472  0.39416  0.88556  1
 O  O7  1  0.84654  0.84654  0.38728  1
 O  O8  1  0.84654  0.84654  0.91963  1
