CIF file written using JARVIS-Tools package.
data_Cu3Ge4O12
_symmetry_space_group_name_H-M  'Im-3'
_cell_length_a       6.2576
_cell_length_b       6.25773
_cell_length_c       6.25772
_cell_angle_alpha    109.471
_cell_angle_beta     109.47
_cell_angle_gamma    109.474

_symmetry_Int_Tables_number  204
_chemical_formula_structural  Cu3Ge4O12
_chemical_formula_sum  Cu3Ge4O2
_cell_volume  188.63127174802557
_cell_formula_units_Z  1
loop_
  _symmetry_equiv_pos_site_id
 _symmetry_equiv_pos_as_xyz
 1  'x, y, z'
loop_
 _atom_site_type_symbol
 _atom_site_label
 _atom_site_symmetry_multiplicity
 _atom_site_fract_x
 _atom_site_fract_y
 _atom_site_fract_z
 _atom_site_fract_occupancy
 Cu  Cu1  1  0.50000  0.50000  -0.00000  1
 Cu  Cu2  1  0.00000  0.50000  0.50000  1
 Cu  Cu3  1  0.50000  0.00000  0.50000  1
 Ge  Ge1  1  0.50000  0.50000  0.50000  1
 Ge  Ge2  1  -0.00000  0.50000  -0.00000  1
 Ge  Ge3  1  -0.00000  0.00000  0.50000  1
 Ge  Ge4  1  0.50000  0.00000  0.00000  1
 O  O1  1  0.81693  0.31294  0.12987  1
 O  O2  1  0.18307  0.68706  0.87012  1
 O  O3  1  0.87012  0.18307  0.68705  1
 O  O4  1  0.31294  0.49601  0.18307  1
 O  O5  1  0.81693  0.68706  0.50399  1
 O  O6  1  0.50398  0.81693  0.68705  1
 O  O7  1  0.68706  0.87012  0.18307  1
 O  O8  1  0.49602  0.18307  0.31295  1
 O  O9  1  0.18307  0.31294  0.49602  1
 O  O10  1  0.68706  0.50399  0.81693  1
 O  O11  1  0.12988  0.81693  0.31295  1
 O  O12  1  0.31294  0.12988  0.81693  1
