CIF file written using JARVIS-Tools package.
data_MnO2
_symmetry_space_group_name_H-M  'P4_2/mnm'
_cell_length_a       5.29154
_cell_length_b       5.29155
_cell_length_c       5.75275
_cell_angle_alpha    57.0723
_cell_angle_beta     57.0724
_cell_angle_gamma    72.8138

_symmetry_Int_Tables_number  136
_chemical_formula_structural  MnO2
_chemical_formula_sum  Mn4O8
_cell_volume  113.48391062238846
_cell_formula_units_Z  4
loop_
  _symmetry_equiv_pos_site_id
 _symmetry_equiv_pos_as_xyz
 1  'x, y, z'
loop_
 _atom_site_type_symbol
 _atom_site_label
 _atom_site_symmetry_multiplicity
 _atom_site_fract_x
 _atom_site_fract_y
 _atom_site_fract_z
 _atom_site_fract_occupancy
 Mn  Mn1  1  0.12500  0.12500  0.87500  1
 Mn  Mn2  1  0.12500  0.12500  0.37500  1
 Mn  Mn3  1  0.62500  0.62500  0.12500  1
 Mn  Mn4  1  0.62500  0.62500  0.62500  1
 O  O1  1  0.32024  0.32024  0.42976  1
 O  O2  1  0.42977  0.82024  0.37499  1
 O  O3  1  0.32024  0.32024  0.92976  1
 O  O4  1  0.82024  0.42977  0.37499  1
 O  O5  1  0.42976  0.82023  0.87501  1
 O  O6  1  0.82023  0.42976  0.87501  1
 O  O7  1  0.92976  0.92976  0.32024  1
 O  O8  1  0.92976  0.92976  0.82024  1
