CIF file written using JARVIS-Tools package.
data_YbIn2Au
_symmetry_space_group_name_H-M  'Cmcm'
_cell_length_a       4.56211
_cell_length_b       5.83227
_cell_length_c       7.71336
_cell_angle_alpha    90
_cell_angle_beta     90
_cell_angle_gamma    113.024

_symmetry_Int_Tables_number  63
_chemical_formula_structural  YbIn2Au
_chemical_formula_sum  Yb2In4Au2
_cell_volume  188.88487891496735
_cell_formula_units_Z  2
loop_
  _symmetry_equiv_pos_site_id
 _symmetry_equiv_pos_as_xyz
 1  'x, y, z'
loop_
 _atom_site_type_symbol
 _atom_site_label
 _atom_site_symmetry_multiplicity
 _atom_site_fract_x
 _atom_site_fract_y
 _atom_site_fract_z
 _atom_site_fract_occupancy
 Au  Au1  1  0.78998  0.57996  0.75000  1
 Au  Au2  1  0.21002  0.42004  0.25000  1
 In  In1  1  0.36642  0.73285  0.54884  1
 In  In2  1  0.63358  0.26715  0.45116  1
 In  In3  1  0.36642  0.73285  0.95116  1
 In  In4  1  0.63358  0.26715  0.04884  1
 Yb  Yb1  1  0.92255  0.84510  0.25000  1
 Yb  Yb2  1  0.07745  0.15490  0.75000  1
