CIF file written using JARVIS-Tools package.
data_DyBC
_symmetry_space_group_name_H-M  'Cmmm'
_cell_length_a       3.39207
_cell_length_b       3.51916
_cell_length_c       8.36991
_cell_angle_alpha    90
_cell_angle_beta     101.691
_cell_angle_gamma    90

_symmetry_Int_Tables_number  65
_chemical_formula_structural  DyBC
_chemical_formula_sum  Dy2B2C2
_cell_volume  97.84088675471561
_cell_formula_units_Z  2
loop_
  _symmetry_equiv_pos_site_id
 _symmetry_equiv_pos_as_xyz
 1  'x, y, z'
loop_
 _atom_site_type_symbol
 _atom_site_label
 _atom_site_symmetry_multiplicity
 _atom_site_fract_x
 _atom_site_fract_y
 _atom_site_fract_z
 _atom_site_fract_occupancy
 B  B1  1  0.71930  0.50000  0.43860  1
 B  B2  1  0.28070  0.50000  0.56140  1
 C  C1  1  0.37123  0.50000  0.74247  1
 C  C2  1  0.62877  0.50000  0.25753  1
 Dy  Dy1  1  0.14006  0.00000  0.28011  1
 Dy  Dy2  1  0.85994  0.00000  0.71989  1
