CIF file written using JARVIS-Tools package.
data_CaMn2Si4O12
_symmetry_space_group_name_H-M  'C2'
_cell_length_a       5.39131
_cell_length_b       6.46352
_cell_length_c       6.46352
_cell_angle_alpha    84.4653
_cell_angle_beta     79.2129
_cell_angle_gamma    79.2128

_symmetry_Int_Tables_number  5
_chemical_formula_structural  CaMn2Si4O12
_chemical_formula_sum  CaMn2Si4O2
_cell_volume  216.90301120850208
_cell_formula_units_Z  1
loop_
  _symmetry_equiv_pos_site_id
 _symmetry_equiv_pos_as_xyz
 1  'x, y, z'
loop_
 _atom_site_type_symbol
 _atom_site_label
 _atom_site_symmetry_multiplicity
 _atom_site_fract_x
 _atom_site_fract_y
 _atom_site_fract_z
 _atom_site_fract_occupancy
 Ca  Ca1  1  0.25000  0.69914  0.30086  1
 Mn  Mn1  1  0.75000  0.91127  0.08873  1
 Mn  Mn2  1  0.25000  0.09962  0.90038  1
 O  O1  1  0.48149  0.34941  0.35983  1
 O  O2  1  0.01851  0.64017  0.65059  1
 O  O3  1  0.33334  0.03791  0.19852  1
 O  O4  1  -0.00504  0.37861  0.33963  1
 O  O5  1  0.50504  0.66037  0.62139  1
 O  O6  1  0.29194  0.38141  0.90937  1
 O  O7  1  0.81536  0.89002  0.37599  1
 O  O8  1  0.68464  0.62401  0.10998  1
 O  O9  1  0.84480  0.18862  0.04716  1
 O  O10  1  0.65520  0.95284  0.81138  1
 O  O11  1  0.20806  0.09063  0.61859  1
 O  O12  1  0.16667  0.80148  0.96209  1
 Si  Si1  1  0.74032  0.79414  0.61886  1
 Si  Si2  1  0.75968  0.38115  0.20586  1
 Si  Si3  1  0.24847  0.61393  0.79441  1
 Si  Si4  1  0.25153  0.20559  0.38607  1
