CIF file written using JARVIS-Tools package.
data_AlSiP3
_symmetry_space_group_name_H-M  'Pnma'
_cell_length_a       5.92236
_cell_length_b       6.15101
_cell_length_c       9.97188
_cell_angle_alpha    90
_cell_angle_beta     90
_cell_angle_gamma    90

_symmetry_Int_Tables_number  62
_chemical_formula_structural  AlSiP3
_chemical_formula_sum  Al4Si4P2
_cell_volume  363.26027731986244
_cell_formula_units_Z  4
loop_
  _symmetry_equiv_pos_site_id
 _symmetry_equiv_pos_as_xyz
 1  'x, y, z'
loop_
 _atom_site_type_symbol
 _atom_site_label
 _atom_site_symmetry_multiplicity
 _atom_site_fract_x
 _atom_site_fract_y
 _atom_site_fract_z
 _atom_site_fract_occupancy
 Al  Al1  1  0.00000  0.00000  0.00000  1
 Al  Al2  1  0.50000  0.50000  0.50000  1
 Al  Al3  1  0.50000  0.50000  0.00000  1
 Al  Al4  1  0.00000  0.00000  0.50000  1
 P  P1  1  0.38855  0.58560  0.75000  1
 P  P2  1  0.61145  0.41440  0.25000  1
 P  P3  1  0.61094  0.89230  0.05869  1
 P  P4  1  0.38906  0.10770  0.55869  1
 P  P5  1  0.11094  0.60770  0.44131  1
 P  P6  1  0.88906  0.39230  0.55869  1
 P  P7  1  0.11094  0.60770  0.05869  1
 P  P8  1  0.88855  0.91440  0.75000  1
 P  P9  1  0.38906  0.10770  0.94131  1
 P  P10  1  0.11145  0.08560  0.25000  1
 P  P11  1  0.61094  0.89230  0.44131  1
 P  P12  1  0.88906  0.39230  0.94131  1
 Si  Si1  1  0.50013  0.93806  0.75000  1
 Si  Si2  1  0.49987  0.06194  0.25000  1
 Si  Si3  1  -0.00013  0.43806  0.25000  1
 Si  Si4  1  0.00013  0.56194  0.75000  1
