CIF file written using JARVIS-Tools package.
data_Li4Ca2MgSi2N6
_symmetry_space_group_name_H-M  'C2/m'
_cell_length_a       5.62195
_cell_length_b       5.7172
_cell_length_c       5.7172
_cell_angle_alpha    118.1
_cell_angle_beta     92.3024
_cell_angle_gamma    92.3024

_symmetry_Int_Tables_number  12
_chemical_formula_structural  Li4Ca2MgSi2N6
_chemical_formula_sum  Li4Ca2MgSi2N6
_cell_volume  161.60570232054843
_cell_formula_units_Z  1
loop_
  _symmetry_equiv_pos_site_id
 _symmetry_equiv_pos_as_xyz
 1  'x, y, z'
loop_
 _atom_site_type_symbol
 _atom_site_label
 _atom_site_symmetry_multiplicity
 _atom_site_fract_x
 _atom_site_fract_y
 _atom_site_fract_z
 _atom_site_fract_occupancy
 Ca  Ca1  1  -0.00000  0.32224  0.67776  1
 Ca  Ca2  1  0.00000  0.67776  0.32224  1
 Li  Li1  1  0.62565  0.98836  0.33242  1
 Li  Li2  1  0.62565  0.33242  0.98836  1
 Li  Li3  1  0.37435  0.01164  0.66758  1
 Li  Li4  1  0.37435  0.66758  0.01164  1
 Mg  Mg1  1  0.00000  0.00000  0.00000  1
 N  N1  1  0.31134  0.62319  0.62319  1
 N  N2  1  0.68866  0.37681  0.37681  1
 N  N3  1  0.25301  0.03107  0.32079  1
 N  N4  1  0.25301  0.32079  0.03107  1
 N  N5  1  0.74699  0.96893  0.67921  1
 N  N6  1  0.74699  0.67921  0.96893  1
 Si  Si1  1  0.36800  0.31981  0.31981  1
 Si  Si2  1  0.63200  0.68019  0.68019  1
