CIF file written using JARVIS-Tools package.
data_NaHo2F7
_symmetry_space_group_name_H-M  'P1'
_cell_length_a       4.19222
_cell_length_b       4.22707
_cell_length_c       8.78161
_cell_angle_alpha    101.711
_cell_angle_beta     91.1022
_cell_angle_gamma    102.115

_symmetry_Int_Tables_number  1
_chemical_formula_structural  NaHo2F7
_chemical_formula_sum  NaHo2F7
_cell_volume  148.67303446446027
_cell_formula_units_Z  1
loop_
  _symmetry_equiv_pos_site_id
 _symmetry_equiv_pos_as_xyz
 1  'x, y, z'
loop_
 _atom_site_type_symbol
 _atom_site_label
 _atom_site_symmetry_multiplicity
 _atom_site_fract_x
 _atom_site_fract_y
 _atom_site_fract_z
 _atom_site_fract_occupancy
 F  F1  1  0.26954  0.66960  0.90704  1
 F  F2  1  0.41249  0.23502  0.60691  1
 F  F3  1  0.95429  0.47250  0.50989  1
 F  F4  1  0.87045  0.94153  0.75063  1
 F  F5  1  0.05216  0.03208  0.25917  1
 F  F6  1  0.49809  0.70103  0.40921  1
 F  F7  1  0.61189  0.31102  0.11537  1
 Ho  Ho1  1  0.33420  0.75392  0.68087  1
 Ho  Ho2  1  0.58608  0.18057  0.33554  1
 Na  Na1  1  0.07749  0.20807  0.00872  1
