CIF file written using JARVIS-Tools package.
data_Na3Li3N2
_symmetry_space_group_name_H-M  'Pmm2'
_cell_length_a       3.59083
_cell_length_b       3.63983
_cell_length_c       11.8838
_cell_angle_alpha    90
_cell_angle_beta     107.518
_cell_angle_gamma    90

_symmetry_Int_Tables_number  25
_chemical_formula_structural  Na3Li3N2
_chemical_formula_sum  Na3Li3N2
_cell_volume  148.1174356030509
_cell_formula_units_Z  1
loop_
  _symmetry_equiv_pos_site_id
 _symmetry_equiv_pos_as_xyz
 1  'x, y, z'
loop_
 _atom_site_type_symbol
 _atom_site_label
 _atom_site_symmetry_multiplicity
 _atom_site_fract_x
 _atom_site_fract_y
 _atom_site_fract_z
 _atom_site_fract_occupancy
 Li  Li1  1  0.89939  0.00000  -0.03800  1
 Li  Li2  1  0.42352  0.50000  -0.01356  1
 Li  Li3  1  0.62517  0.50000  0.68701  1
 N  N1  1  0.48297  0.00000  0.04585  1
 N  N2  1  0.79026  0.50000  0.85224  1
 Na  Na1  1  0.24991  0.00000  0.81192  1
 Na  Na2  1  0.11830  0.00000  0.18166  1
 Na  Na3  1  0.91049  0.00000  0.47288  1
