CIF file written using JARVIS-Tools package.
data_CaVBiO6
_symmetry_space_group_name_H-M  'P2_1'
_cell_length_a       7.02113
_cell_length_b       5.33965
_cell_length_c       7.50649
_cell_angle_alpha    90
_cell_angle_beta     104.255
_cell_angle_gamma    90

_symmetry_Int_Tables_number  4
_chemical_formula_structural  CaVBiO6
_chemical_formula_sum  Ca2V2Bi2O2
_cell_volume  272.7557852993049
_cell_formula_units_Z  2
loop_
  _symmetry_equiv_pos_site_id
 _symmetry_equiv_pos_as_xyz
 1  'x, y, z'
loop_
 _atom_site_type_symbol
 _atom_site_label
 _atom_site_symmetry_multiplicity
 _atom_site_fract_x
 _atom_site_fract_y
 _atom_site_fract_z
 _atom_site_fract_occupancy
 Bi  Bi1  1  0.39559  0.23616  0.56749  1
 Bi  Bi2  1  0.60441  0.73616  0.43251  1
 Ca  Ca1  1  0.74254  0.74630  0.94507  1
 Ca  Ca2  1  0.25746  0.24630  0.05493  1
 O  O1  1  0.34431  0.97148  0.34226  1
 O  O2  1  0.23149  0.04416  0.75474  1
 O  O3  1  0.57830  0.08486  0.07776  1
 O  O4  1  0.82016  0.02583  0.42003  1
 O  O5  1  0.17984  0.52583  0.57997  1
 O  O6  1  0.04374  0.63708  0.89626  1
 O  O7  1  0.65569  0.47148  0.65774  1
 O  O8  1  0.39865  0.45132  0.31939  1
 O  O9  1  0.95626  0.13708  0.10374  1
 O  O10  1  0.76851  0.54416  0.24526  1
 O  O11  1  0.60135  0.95132  0.68061  1
 O  O12  1  0.42170  0.58486  0.92224  1
 V  V1  1  0.78316  0.20929  0.21752  1
 V  V2  1  0.21684  0.70929  0.78248  1
