CIF file written using JARVIS-Tools package.
data_PrGe
_symmetry_space_group_name_H-M  'Pnma'
_cell_length_a       4.10498
_cell_length_b       6.02906
_cell_length_c       8.35741
_cell_angle_alpha    90
_cell_angle_beta     90
_cell_angle_gamma    90

_symmetry_Int_Tables_number  62
_chemical_formula_structural  PrGe
_chemical_formula_sum  Pr4Ge4
_cell_volume  206.8390337795043
_cell_formula_units_Z  4
loop_
  _symmetry_equiv_pos_site_id
 _symmetry_equiv_pos_as_xyz
 1  'x, y, z'
loop_
 _atom_site_type_symbol
 _atom_site_label
 _atom_site_symmetry_multiplicity
 _atom_site_fract_x
 _atom_site_fract_y
 _atom_site_fract_z
 _atom_site_fract_occupancy
 Ge  Ge1  1  0.25000  0.86206  0.53875  1
 Ge  Ge2  1  0.75000  0.13794  0.46125  1
 Ge  Ge3  1  0.75000  0.36206  0.96125  1
 Ge  Ge4  1  0.25000  0.63794  0.03875  1
 Pr  Pr1  1  0.25000  0.38206  0.68125  1
 Pr  Pr2  1  0.75000  0.61794  0.31875  1
 Pr  Pr3  1  0.75000  0.88206  0.81875  1
 Pr  Pr4  1  0.25000  0.11794  0.18125  1
