CIF file written using JARVIS-Tools package.
data_Li3V3CoO8
_symmetry_space_group_name_H-M  'R-3m'
_cell_length_a       5.73813
_cell_length_b       5.73816
_cell_length_c       5.86957
_cell_angle_alpha    60.7367
_cell_angle_beta     60.7386
_cell_angle_gamma    60.0023

_symmetry_Int_Tables_number  166
_chemical_formula_structural  Li3V3CoO8
_chemical_formula_sum  Li3V3CoO8
_cell_volume  138.16403586385448
_cell_formula_units_Z  1
loop_
  _symmetry_equiv_pos_site_id
 _symmetry_equiv_pos_as_xyz
 1  'x, y, z'
loop_
 _atom_site_type_symbol
 _atom_site_label
 _atom_site_symmetry_multiplicity
 _atom_site_fract_x
 _atom_site_fract_y
 _atom_site_fract_z
 _atom_site_fract_occupancy
 Co  Co1  1  0.00000  0.00000  0.00000  1
 Li  Li1  1  -0.00000  0.00000  0.50000  1
 Li  Li2  1  -0.00000  0.50000  0.50000  1
 Li  Li3  1  0.50000  0.00000  0.50000  1
 O  O1  1  0.74562  0.74563  0.76313  1
 O  O2  1  0.23666  0.23668  0.77985  1
 O  O3  1  0.23667  0.74683  0.77985  1
 O  O4  1  0.25438  0.25437  0.23687  1
 O  O5  1  0.74681  0.23668  0.77985  1
 O  O6  1  0.76334  0.76332  0.22015  1
 O  O7  1  0.76333  0.25317  0.22015  1
 O  O8  1  0.25319  0.76332  0.22015  1
 V  V1  1  0.50000  0.50000  0.00000  1
 V  V2  1  0.50000  0.00000  0.00000  1
 V  V3  1  -0.00000  0.50000  0.00000  1
