CIF file written using JARVIS-Tools package.
data_LiCrFeO4
_symmetry_space_group_name_H-M  'Imma'
_cell_length_a       5.67187
_cell_length_b       5.76589
_cell_length_c       5.76588
_cell_angle_alpha    60.3645
_cell_angle_beta     60.538
_cell_angle_gamma    60.538

_symmetry_Int_Tables_number  74
_chemical_formula_structural  LiCrFeO4
_chemical_formula_sum  Li2Cr2Fe2O8
_cell_volume  134.78112328387112
_cell_formula_units_Z  2
loop_
  _symmetry_equiv_pos_site_id
 _symmetry_equiv_pos_as_xyz
 1  'x, y, z'
loop_
 _atom_site_type_symbol
 _atom_site_label
 _atom_site_symmetry_multiplicity
 _atom_site_fract_x
 _atom_site_fract_y
 _atom_site_fract_z
 _atom_site_fract_occupancy
 Cr  Cr1  1  0.50000  0.00000  0.50000  1
 Cr  Cr2  1  0.50000  0.50000  0.00000  1
 Fe  Fe1  1  -0.00000  0.50000  0.50000  1
 Fe  Fe2  1  0.50000  0.50000  0.50000  1
 Li  Li1  1  0.12357  0.12643  0.12643  1
 Li  Li2  1  0.87643  0.87357  0.87357  1
 O  O1  1  0.25573  0.26517  0.26517  1
 O  O2  1  0.26110  0.26624  0.71157  1
 O  O3  1  0.26110  0.71157  0.26624  1
 O  O4  1  0.71393  0.26517  0.26517  1
 O  O5  1  0.28607  0.73483  0.73483  1
 O  O6  1  0.73890  0.73376  0.28843  1
 O  O7  1  0.73890  0.28843  0.73376  1
 O  O8  1  0.74427  0.73483  0.73483  1
