CIF file written using JARVIS-Tools package.
data_CaCr2O4
_symmetry_space_group_name_H-M  'Imma'
_cell_length_a       6.15355
_cell_length_b       6.15354
_cell_length_c       6.08014
_cell_angle_alpha    60.3939
_cell_angle_beta     60.3938
_cell_angle_gamma    60.8509

_symmetry_Int_Tables_number  74
_chemical_formula_structural  CaCr2O4
_chemical_formula_sum  Ca2Cr4O8
_cell_volume  164.79992558352234
_cell_formula_units_Z  2
loop_
  _symmetry_equiv_pos_site_id
 _symmetry_equiv_pos_as_xyz
 1  'x, y, z'
loop_
 _atom_site_type_symbol
 _atom_site_label
 _atom_site_symmetry_multiplicity
 _atom_site_fract_x
 _atom_site_fract_y
 _atom_site_fract_z
 _atom_site_fract_occupancy
 Ca  Ca1  1  0.12500  0.62500  0.62500  1
 Ca  Ca2  1  0.62500  0.12500  0.62500  1
 Cr  Cr1  1  0.99441  0.99441  0.00559  1
 Cr  Cr2  1  0.25559  0.25559  0.24441  1
 Cr  Cr3  1  0.62500  0.62500  0.12500  1
 Cr  Cr4  1  0.62500  0.62500  0.62500  1
 O  O1  1  0.39428  0.39428  0.34033  1
 O  O2  1  0.40958  0.86455  0.36293  1
 O  O3  1  0.39428  0.39428  0.87110  1
 O  O4  1  0.86455  0.40958  0.36293  1
 O  O5  1  0.38545  0.84042  0.88707  1
 O  O6  1  0.84042  0.38545  0.88707  1
 O  O7  1  0.85572  0.85572  0.37890  1
 O  O8  1  0.85572  0.85572  0.90967  1
