CIF file written using JARVIS-Tools package.
data_Ba3Cr2S6
_symmetry_space_group_name_H-M  'R-3c'
_cell_length_a       8.08028
_cell_length_b       8.08027
_cell_length_c       8.08027
_cell_angle_alpha    94.834
_cell_angle_beta     94.834
_cell_angle_gamma    94.834

_symmetry_Int_Tables_number  167
_chemical_formula_structural  Ba3Cr2S6
_chemical_formula_sum  Ba6Cr4S2
_cell_volume  521.5981136773321
_cell_formula_units_Z  2
loop_
  _symmetry_equiv_pos_site_id
 _symmetry_equiv_pos_as_xyz
 1  'x, y, z'
loop_
 _atom_site_type_symbol
 _atom_site_label
 _atom_site_symmetry_multiplicity
 _atom_site_fract_x
 _atom_site_fract_y
 _atom_site_fract_z
 _atom_site_fract_occupancy
 Ba  Ba1  1  0.36352  0.75000  0.13648  1
 Ba  Ba2  1  0.75000  0.13648  0.36352  1
 Ba  Ba3  1  0.63648  0.25000  0.86352  1
 Ba  Ba4  1  0.86352  0.63648  0.25000  1
 Ba  Ba5  1  0.25000  0.86352  0.63648  1
 Ba  Ba6  1  0.13648  0.36352  0.75000  1
 Cr  Cr1  1  0.25000  0.25000  0.25000  1
 Cr  Cr2  1  0.75000  0.75000  0.75000  1
 Cr  Cr3  1  0.50000  0.50000  0.50000  1
 Cr  Cr4  1  0.00000  0.00000  0.00000  1
 S  S1  1  0.01685  0.70740  0.90933  1
 S  S2  1  0.70740  0.90933  0.01685  1
 S  S3  1  0.79260  0.48315  0.59067  1
 S  S4  1  0.48315  0.59067  0.79260  1
 S  S5  1  0.59067  0.79260  0.48315  1
 S  S6  1  0.51685  0.40933  0.20740  1
 S  S7  1  0.98315  0.29260  0.09067  1
 S  S8  1  0.29260  0.09067  0.98315  1
 S  S9  1  0.90933  0.01685  0.70740  1
 S  S10  1  0.20740  0.51685  0.40933  1
 S  S11  1  0.09067  0.98315  0.29260  1
 S  S12  1  0.40933  0.20740  0.51685  1
