CIF file written using JARVIS-Tools package.
data_ZnAs
_symmetry_space_group_name_H-M  'Pbca'
_cell_length_a       5.7891
_cell_length_b       7.31738
_cell_length_c       7.62948
_cell_angle_alpha    90
_cell_angle_beta     90
_cell_angle_gamma    90

_symmetry_Int_Tables_number  61
_chemical_formula_structural  ZnAs
_chemical_formula_sum  Zn8As8
_cell_volume  323.19279002040463
_cell_formula_units_Z  8
loop_
  _symmetry_equiv_pos_site_id
 _symmetry_equiv_pos_as_xyz
 1  'x, y, z'
loop_
 _atom_site_type_symbol
 _atom_site_label
 _atom_site_symmetry_multiplicity
 _atom_site_fract_x
 _atom_site_fract_y
 _atom_site_fract_z
 _atom_site_fract_occupancy
 As  As1  1  0.13659  0.07440  0.10196  1
 As  As2  1  0.63659  0.42560  0.89804  1
 As  As3  1  0.86341  0.57440  0.39804  1
 As  As4  1  0.36341  0.92560  0.60196  1
 As  As5  1  0.86341  0.92560  0.89804  1
 As  As6  1  0.36341  0.57440  0.10196  1
 As  As7  1  0.13659  0.42560  0.60196  1
 As  As8  1  0.63659  0.07440  0.39804  1
 Zn  Zn1  1  0.54368  0.61794  0.63347  1
 Zn  Zn2  1  0.04368  0.88206  0.36653  1
 Zn  Zn3  1  0.45632  0.11794  0.86653  1
 Zn  Zn4  1  0.95632  0.38206  0.13347  1
 Zn  Zn5  1  0.45632  0.38206  0.36653  1
 Zn  Zn6  1  0.95632  0.11794  0.63347  1
 Zn  Zn7  1  0.54368  0.88206  0.13347  1
 Zn  Zn8  1  0.04368  0.61794  0.86653  1
