CIF file written using JARVIS-Tools package.
data_YbMgNiH4
_symmetry_space_group_name_H-M  'P2_13'
_cell_length_a       6.58911
_cell_length_b       6.58911
_cell_length_c       6.58911
_cell_angle_alpha    90
_cell_angle_beta     90
_cell_angle_gamma    90

_symmetry_Int_Tables_number  198
_chemical_formula_structural  YbMgNiH4
_chemical_formula_sum  Yb4Mg4Ni4H6
_cell_volume  286.075836184855
_cell_formula_units_Z  4
loop_
  _symmetry_equiv_pos_site_id
 _symmetry_equiv_pos_as_xyz
 1  'x, y, z'
loop_
 _atom_site_type_symbol
 _atom_site_label
 _atom_site_symmetry_multiplicity
 _atom_site_fract_x
 _atom_site_fract_y
 _atom_site_fract_z
 _atom_site_fract_occupancy
 H  H1  1  0.55722  0.93736  0.76521  1
 H  H2  1  0.59503  0.09503  0.40497  1
 H  H3  1  0.56264  0.23479  0.05722  1
 H  H4  1  0.40497  0.59503  0.09503  1
 H  H5  1  0.90497  0.90497  0.90497  1
 H  H6  1  0.26521  0.94278  0.06264  1
 H  H7  1  0.93736  0.76521  0.55722  1
 H  H8  1  0.09503  0.40497  0.59503  1
 H  H9  1  0.76521  0.55722  0.93736  1
 H  H10  1  0.43736  0.73479  0.44278  1
 H  H11  1  0.94278  0.06264  0.26521  1
 H  H12  1  0.73479  0.44278  0.43736  1
 H  H13  1  0.06264  0.26521  0.94278  1
 H  H14  1  0.05722  0.56264  0.23479  1
 H  H15  1  0.23479  0.05722  0.56264  1
 H  H16  1  0.44278  0.43736  0.73479  1
 Mg  Mg1  1  0.65893  0.65893  0.65893  1
 Mg  Mg2  1  0.15893  0.84107  0.34107  1
 Mg  Mg3  1  0.34107  0.15893  0.84107  1
 Mg  Mg4  1  0.84107  0.34107  0.15893  1
 Ni  Ni1  1  0.45596  0.95596  0.54404  1
 Ni  Ni2  1  0.95596  0.54404  0.45596  1
 Ni  Ni3  1  0.54404  0.45596  0.95596  1
 Ni  Ni4  1  0.04404  0.04404  0.04404  1
 Yb  Yb1  1  0.34407  0.34407  0.34407  1
 Yb  Yb2  1  0.84407  0.15593  0.65593  1
 Yb  Yb3  1  0.65593  0.84407  0.15593  1
 Yb  Yb4  1  0.15593  0.65593  0.84407  1
