CIF file written using JARVIS-Tools package.
data_Si3Ag3Sn2P6
_symmetry_space_group_name_H-M  'I-43m'
_cell_length_a       9.07288
_cell_length_b       9.07288
_cell_length_c       9.07288
_cell_angle_alpha    109.471
_cell_angle_beta     109.471
_cell_angle_gamma    109.471

_symmetry_Int_Tables_number  217
_chemical_formula_structural  Si3Ag3Sn2P6
_chemical_formula_sum  Si6Ag6Sn4P2
_cell_volume  574.9288252333005
_cell_formula_units_Z  2
loop_
  _symmetry_equiv_pos_site_id
 _symmetry_equiv_pos_as_xyz
 1  'x, y, z'
loop_
 _atom_site_type_symbol
 _atom_site_label
 _atom_site_symmetry_multiplicity
 _atom_site_fract_x
 _atom_site_fract_y
 _atom_site_fract_z
 _atom_site_fract_occupancy
 Ag  Ag1  1  0.19681  0.19681  -0.00000  1
 Ag  Ag2  1  -0.00000  0.19681  0.19681  1
 Ag  Ag3  1  0.80319  0.80319  0.00000  1
 Ag  Ag4  1  0.00000  0.80319  0.80319  1
 Ag  Ag5  1  0.80319  0.00000  0.80319  1
 Ag  Ag6  1  0.19681  -0.00000  0.19681  1
 P  P1  1  0.50245  0.75344  0.00000  1
 P  P2  1  0.00000  0.50245  0.75344  1
 P  P3  1  0.24656  0.24656  0.74901  1
 P  P4  1  0.50245  0.00000  0.75344  1
 P  P5  1  0.25099  0.49755  0.49755  1
 P  P6  1  0.75344  0.00000  0.50245  1
 P  P7  1  0.75344  0.50245  0.00000  1
 P  P8  1  0.00000  0.75344  0.50245  1
 P  P9  1  0.74901  0.24656  0.24656  1
 P  P10  1  0.24656  0.74901  0.24656  1
 P  P11  1  0.49755  0.25099  0.49755  1
 P  P12  1  0.49755  0.49755  0.25099  1
 Si  Si1  1  0.25000  0.75000  0.50000  1
 Si  Si2  1  0.50000  0.25000  0.75000  1
 Si  Si3  1  0.75000  0.50000  0.25000  1
 Si  Si4  1  0.25000  0.50000  0.75000  1
 Si  Si5  1  0.75000  0.25000  0.50000  1
 Si  Si6  1  0.50000  0.75000  0.25000  1
 Sn  Sn1  1  -0.00000  -0.00000  0.40825  1
 Sn  Sn2  1  0.40825  0.00000  0.00000  1
 Sn  Sn3  1  -0.00000  0.40825  -0.00000  1
 Sn  Sn4  1  0.59175  0.59175  0.59175  1
