CIF file written using JARVIS-Tools package.
data_Ca4ThF12
_symmetry_space_group_name_H-M  'C2/m'
_cell_length_a       3.9108
_cell_length_b       4.09711
_cell_length_c       16.0068
_cell_angle_alpha    89.6753
_cell_angle_beta     97.0112
_cell_angle_gamma    118.501

_symmetry_Int_Tables_number  12
_chemical_formula_structural  Ca4ThF12
_chemical_formula_sum  Ca4ThF2
_cell_volume  223.30130491752737
_cell_formula_units_Z  1
loop_
  _symmetry_equiv_pos_site_id
 _symmetry_equiv_pos_as_xyz
 1  'x, y, z'
loop_
 _atom_site_type_symbol
 _atom_site_label
 _atom_site_symmetry_multiplicity
 _atom_site_fract_x
 _atom_site_fract_y
 _atom_site_fract_z
 _atom_site_fract_occupancy
 Ca  Ca1  1  0.93249  0.91615  0.98339  1
 Ca  Ca2  1  0.14899  0.54261  0.79020  1
 Ca  Ca3  1  0.36890  0.17471  0.59804  1
 Ca  Ca4  1  0.58552  0.80130  0.40485  1
 F  F1  1  0.23164  0.56230  0.93559  1
 F  F2  1  0.67448  0.83248  0.55142  1
 F  F3  1  0.84346  0.88490  0.83682  1
 F  F4  1  0.32297  0.56171  0.11885  1
 F  F5  1  0.45433  0.19902  0.74446  1
 F  F6  1  0.01089  0.92779  0.12868  1
 F  F7  1  0.89878  0.47979  0.35279  1
 F  F8  1  0.28639  0.15523  0.45265  1
 F  F9  1  0.19545  0.15640  0.26938  1
 F  F10  1  0.50751  0.79028  0.25956  1
 F  F11  1  0.06356  0.51830  0.64378  1
 F  F12  1  0.61947  0.23806  0.03544  1
 Th  Th1  1  0.75918  0.35900  0.19411  1
