CIF file written using JARVIS-Tools package.
data_TmInRh
_symmetry_space_group_name_H-M  'P-62m'
_cell_length_a       7.4974
_cell_length_b       7.4974
_cell_length_c       3.82433
_cell_angle_alpha    90
_cell_angle_beta     90
_cell_angle_gamma    120

_symmetry_Int_Tables_number  189
_chemical_formula_structural  TmInRh
_chemical_formula_sum  Tm3In3Rh3
_cell_volume  186.16886551686565
_cell_formula_units_Z  3
loop_
  _symmetry_equiv_pos_site_id
 _symmetry_equiv_pos_as_xyz
 1  'x, y, z'
loop_
 _atom_site_type_symbol
 _atom_site_label
 _atom_site_symmetry_multiplicity
 _atom_site_fract_x
 _atom_site_fract_y
 _atom_site_fract_z
 _atom_site_fract_occupancy
 In  In1  1  0.26148  0.26148  0.00000  1
 In  In2  1  0.00000  0.73852  0.00000  1
 In  In3  1  0.73852  0.00000  0.00000  1
 Rh  Rh1  1  0.33333  0.66667  0.00000  1
 Rh  Rh2  1  0.00000  0.00000  0.50000  1
 Rh  Rh3  1  0.66667  0.33333  0.00000  1
 Tm  Tm1  1  -0.00000  0.40387  0.50000  1
 Tm  Tm2  1  0.59613  0.59613  0.50000  1
 Tm  Tm3  1  0.40387  -0.00000  0.50000  1
