CIF file written using JARVIS-Tools package.
data_S5N5Cl
_symmetry_space_group_name_H-M  'C2/c'
_cell_length_a       7.87418
_cell_length_b       8.02124
_cell_length_c       8.46676
_cell_angle_alpha    61.7259
_cell_angle_beta     86.6945
_cell_angle_gamma    83.0082

_symmetry_Int_Tables_number  15
_chemical_formula_structural  S5N5Cl
_chemical_formula_sum  S0N0Cl2
_cell_volume  467.4617383853546
_cell_formula_units_Z  2
loop_
  _symmetry_equiv_pos_site_id
 _symmetry_equiv_pos_as_xyz
 1  'x, y, z'
loop_
 _atom_site_type_symbol
 _atom_site_label
 _atom_site_symmetry_multiplicity
 _atom_site_fract_x
 _atom_site_fract_y
 _atom_site_fract_z
 _atom_site_fract_occupancy
 Cl  Cl1  1  0.00000  -0.00000  0.00000  1
 Cl  Cl2  1  0.50000  -0.00000  0.00000  1
 N  N1  1  0.25000  0.59537  0.80926  1
 N  N2  1  0.29579  0.60301  0.10303  1
 N  N3  1  0.20421  0.29395  0.10303  1
 N  N4  1  0.72756  0.55218  0.55403  1
 N  N5  1  0.77244  0.89379  0.55403  1
 N  N6  1  0.27244  0.44782  0.44597  1
 N  N7  1  0.22756  0.10621  0.44597  1
 N  N8  1  0.70421  0.39699  0.89697  1
 N  N9  1  0.79579  0.70605  0.89697  1
 N  N10  1  0.75000  0.40463  0.19074  1
 S  S1  1  0.70750  0.35910  0.73201  1
 S  S2  1  0.79250  0.90889  0.73201  1
 S  S3  1  0.29250  0.64090  0.26799  1
 S  S4  1  0.20750  0.09111  0.26799  1
 S  S5  1  0.75000  0.77232  0.45535  1
 S  S6  1  0.25000  0.22768  0.54465  1
 S  S7  1  0.28040  0.72983  0.89367  1
 S  S8  1  0.21960  0.37651  0.89367  1
 S  S9  1  0.71960  0.27017  0.10633  1
 S  S10  1  0.78040  0.62349  0.10633  1
