CIF file written using JARVIS-Tools package.
data_SiCu2S3
_symmetry_space_group_name_H-M  'Cc'
_cell_length_a       6.34863
_cell_length_b       6.36154
_cell_length_c       6.44458
_cell_angle_alpha    60.4254
_cell_angle_beta     81.1084
_cell_angle_gamma    71.7498

_symmetry_Int_Tables_number  9
_chemical_formula_structural  SiCu2S3
_chemical_formula_sum  Si2Cu4S6
_cell_volume  214.98011684759416
_cell_formula_units_Z  2
loop_
  _symmetry_equiv_pos_site_id
 _symmetry_equiv_pos_as_xyz
 1  'x, y, z'
loop_
 _atom_site_type_symbol
 _atom_site_label
 _atom_site_symmetry_multiplicity
 _atom_site_fract_x
 _atom_site_fract_y
 _atom_site_fract_z
 _atom_site_fract_occupancy
 Cu  Cu1  1  0.99679  0.75229  0.49020  1
 Cu  Cu2  1  0.49679  0.24249  0.50980  1
 Cu  Cu3  1  0.49972  0.58631  0.82505  1
 Cu  Cu4  1  0.99972  0.41136  0.17495  1
 S  S1  1  0.11749  0.35336  0.52323  1
 S  S2  1  0.61749  0.87659  0.47677  1
 S  S3  1  0.64567  0.18534  0.84931  1
 S  S4  1  0.14567  0.03464  0.15069  1
 S  S5  1  0.11704  0.70997  0.83125  1
 S  S6  1  0.61704  0.54122  0.16875  1
 Si  Si1  1  0.02061  0.06013  0.83038  1
 Si  Si2  1  0.52061  0.89050  0.16962  1
