CIF file written using JARVIS-Tools package.
data_Sr2Mn2O5
_symmetry_space_group_name_H-M  'Pbam'
_cell_length_a       3.81649
_cell_length_b       5.53893
_cell_length_c       10.8895
_cell_angle_alpha    90
_cell_angle_beta     90
_cell_angle_gamma    90

_symmetry_Int_Tables_number  55
_chemical_formula_structural  Sr2Mn2O5
_chemical_formula_sum  Sr4Mn4O0
_cell_volume  230.19607861277186
_cell_formula_units_Z  2
loop_
  _symmetry_equiv_pos_site_id
 _symmetry_equiv_pos_as_xyz
 1  'x, y, z'
loop_
 _atom_site_type_symbol
 _atom_site_label
 _atom_site_symmetry_multiplicity
 _atom_site_fract_x
 _atom_site_fract_y
 _atom_site_fract_z
 _atom_site_fract_occupancy
 Mn  Mn1  1  0.50000  0.23959  0.62375  1
 Mn  Mn2  1  0.50000  0.76041  0.37625  1
 Mn  Mn3  1  0.50000  0.73959  0.87625  1
 Mn  Mn4  1  0.50000  0.26041  0.12375  1
 O  O1  1  0.00000  0.79807  0.39878  1
 O  O2  1  0.00000  0.29807  0.10122  1
 O  O3  1  0.50000  0.00000  0.00000  1
 O  O4  1  0.50000  0.97101  0.73335  1
 O  O5  1  0.50000  0.50000  0.50000  1
 O  O6  1  0.50000  0.47101  0.76665  1
 O  O7  1  0.00000  0.70193  0.89878  1
 O  O8  1  0.00000  0.20193  0.60122  1
 O  O9  1  0.50000  0.02899  0.26665  1
 O  O10  1  0.50000  0.52899  0.23335  1
 Sr  Sr1  1  0.00000  0.28486  0.36682  1
 Sr  Sr2  1  0.00000  0.71514  0.63318  1
 Sr  Sr3  1  0.00000  0.78486  0.13318  1
 Sr  Sr4  1  0.00000  0.21514  0.86682  1
