CIF file written using JARVIS-Tools package.
data_K2Zn3O4
_symmetry_space_group_name_H-M  'C2/c'
_cell_length_a       5.79801
_cell_length_b       6.38744
_cell_length_c       8.07365
_cell_angle_alpha    113.302
_cell_angle_beta     102.152
_cell_angle_gamma    90

_symmetry_Int_Tables_number  15
_chemical_formula_structural  K2Zn3O4
_chemical_formula_sum  K4Zn6O8
_cell_volume  267.3036722586626
_cell_formula_units_Z  2
loop_
  _symmetry_equiv_pos_site_id
 _symmetry_equiv_pos_as_xyz
 1  'x, y, z'
loop_
 _atom_site_type_symbol
 _atom_site_label
 _atom_site_symmetry_multiplicity
 _atom_site_fract_x
 _atom_site_fract_y
 _atom_site_fract_z
 _atom_site_fract_occupancy
 K  K1  1  0.51571  0.76449  0.76404  1
 K  K2  1  0.98429  0.00045  0.23596  1
 K  K3  1  0.48429  0.23551  0.23596  1
 K  K4  1  0.01571  -0.00045  0.76404  1
 O  O1  1  0.28290  0.86008  0.46819  1
 O  O2  1  0.45556  0.26021  0.88650  1
 O  O3  1  0.04444  0.37371  0.11350  1
 O  O4  1  0.54444  0.73979  0.11350  1
 O  O5  1  0.95556  0.62629  0.88650  1
 O  O6  1  0.71710  0.13992  0.53181  1
 O  O7  1  0.78290  0.60811  0.46819  1
 O  O8  1  0.21710  0.39189  0.53181  1
 Zn  Zn1  1  0.75000  0.47898  -0.00000  1
 Zn  Zn2  1  0.91536  0.42647  0.61929  1
 Zn  Zn3  1  0.41536  0.19282  0.61929  1
 Zn  Zn4  1  0.58464  0.80718  0.38071  1
 Zn  Zn5  1  0.08464  0.57353  0.38071  1
 Zn  Zn6  1  0.25000  0.52102  0.00000  1
