CIF file written using JARVIS-Tools package.
data_CrCdO4
_symmetry_space_group_name_H-M  'Cmcm'
_cell_length_a       5.22124
_cell_length_b       5.22124
_cell_length_c       6.98417
_cell_angle_alpha    90
_cell_angle_beta     90
_cell_angle_gamma    113.098

_symmetry_Int_Tables_number  63
_chemical_formula_structural  CrCdO4
_chemical_formula_sum  Cr2Cd2O8
_cell_volume  175.13408389546
_cell_formula_units_Z  2
loop_
  _symmetry_equiv_pos_site_id
 _symmetry_equiv_pos_as_xyz
 1  'x, y, z'
loop_
 _atom_site_type_symbol
 _atom_site_label
 _atom_site_symmetry_multiplicity
 _atom_site_fract_x
 _atom_site_fract_y
 _atom_site_fract_z
 _atom_site_fract_occupancy
 Cd  Cd1  1  0.00000  0.00000  0.50000  1
 Cd  Cd2  1  0.00000  0.00000  0.00000  1
 Cr  Cr1  1  0.63547  0.36453  0.25000  1
 Cr  Cr2  1  0.36453  0.63547  0.75000  1
 O  O1  1  0.71754  0.76681  0.75000  1
 O  O2  1  0.28246  0.23319  0.25000  1
 O  O3  1  0.76681  0.71754  0.25000  1
 O  O4  1  0.23319  0.28246  0.75000  1
 O  O5  1  0.25817  0.74183  0.94293  1
 O  O6  1  0.74183  0.25817  0.44293  1
 O  O7  1  0.74183  0.25817  0.05707  1
 O  O8  1  0.25817  0.74183  0.55707  1
