CIF file written using JARVIS-Tools package.
data_Ni2P
_symmetry_space_group_name_H-M  'P-62m'
_cell_length_a       5.90105
_cell_length_b       5.90105
_cell_length_c       3.39001
_cell_angle_alpha    90
_cell_angle_beta     90
_cell_angle_gamma    120

_symmetry_Int_Tables_number  189
_chemical_formula_structural  Ni2P
_chemical_formula_sum  Ni6P3
_cell_volume  102.23276886987233
_cell_formula_units_Z  3
loop_
  _symmetry_equiv_pos_site_id
 _symmetry_equiv_pos_as_xyz
 1  'x, y, z'
loop_
 _atom_site_type_symbol
 _atom_site_label
 _atom_site_symmetry_multiplicity
 _atom_site_fract_x
 _atom_site_fract_y
 _atom_site_fract_z
 _atom_site_fract_occupancy
 Ni  Ni1  1  0.60240  -0.00000  0.50000  1
 Ni  Ni2  1  -0.00000  0.60240  0.50000  1
 Ni  Ni3  1  0.73942  0.73942  0.00000  1
 Ni  Ni4  1  -0.00000  0.26058  0.00000  1
 Ni  Ni5  1  0.39760  0.39760  0.50000  1
 Ni  Ni6  1  0.26058  -0.00000  0.00000  1
 P  P1  1  0.33333  0.66667  0.00000  1
 P  P2  1  0.00000  0.00000  0.50000  1
 P  P3  1  0.66667  0.33333  0.00000  1
