CIF file written using JARVIS-Tools package.
data_LiFeNiO4
_symmetry_space_group_name_H-M  'Imma'
_cell_length_a       5.74266
_cell_length_b       5.72299
_cell_length_c       5.72299
_cell_angle_alpha    58.341
_cell_angle_beta     59.8862
_cell_angle_gamma    59.8862

_symmetry_Int_Tables_number  74
_chemical_formula_structural  LiFeNiO4
_chemical_formula_sum  Li2Fe2Ni2O8
_cell_volume  131.02974070985522
_cell_formula_units_Z  2
loop_
  _symmetry_equiv_pos_site_id
 _symmetry_equiv_pos_as_xyz
 1  'x, y, z'
loop_
 _atom_site_type_symbol
 _atom_site_label
 _atom_site_symmetry_multiplicity
 _atom_site_fract_x
 _atom_site_fract_y
 _atom_site_fract_z
 _atom_site_fract_occupancy
 Fe  Fe1  1  0.50000  0.00000  0.50000  1
 Fe  Fe2  1  0.50000  0.50000  0.00000  1
 Li  Li1  1  0.12317  0.12683  0.12683  1
 Li  Li2  1  0.87683  0.87317  0.87317  1
 Ni  Ni1  1  -0.00000  0.50000  0.50000  1
 Ni  Ni2  1  0.50000  0.50000  0.50000  1
 O  O1  1  0.26413  0.26276  0.26276  1
 O  O2  1  0.26787  0.25389  0.71036  1
 O  O3  1  0.26787  0.71036  0.25389  1
 O  O4  1  0.71035  0.26276  0.26276  1
 O  O5  1  0.28965  0.73724  0.73724  1
 O  O6  1  0.73213  0.74611  0.28964  1
 O  O7  1  0.73213  0.28964  0.74611  1
 O  O8  1  0.73587  0.73724  0.73724  1
