CIF file written using JARVIS-Tools package.
data_Li2PNO2
_symmetry_space_group_name_H-M  'Cmc2_1'
_cell_length_a       4.72407
_cell_length_b       5.25899
_cell_length_c       5.25899
_cell_angle_alpha    61.6606
_cell_angle_beta     90
_cell_angle_gamma    90

_symmetry_Int_Tables_number  36
_chemical_formula_structural  Li2PNO2
_chemical_formula_sum  Li4P2N2O4
_cell_volume  114.99485240182979
_cell_formula_units_Z  2
loop_
  _symmetry_equiv_pos_site_id
 _symmetry_equiv_pos_as_xyz
 1  'x, y, z'
loop_
 _atom_site_type_symbol
 _atom_site_label
 _atom_site_symmetry_multiplicity
 _atom_site_fract_x
 _atom_site_fract_y
 _atom_site_fract_z
 _atom_site_fract_occupancy
 Li  Li1  1  0.49780  0.00796  0.32519  1
 Li  Li2  1  0.49780  0.67481  0.99204  1
 Li  Li3  1  0.99780  0.99204  0.67481  1
 Li  Li4  1  0.99780  0.32519  0.00796  1
 N  N1  1  0.65610  0.61562  0.38438  1
 N  N2  1  0.15610  0.38438  0.61562  1
 O  O1  1  0.58353  0.33246  0.94840  1
 O  O2  1  0.58353  0.05160  0.66754  1
 O  O3  1  0.08353  0.66754  0.05160  1
 O  O4  1  0.08353  0.94840  0.33246  1
 P  P1  1  0.50024  0.34437  0.65563  1
 P  P2  1  0.00024  0.65563  0.34437  1
