CIF file written using JARVIS-Tools package.
data_P10Au7I
_symmetry_space_group_name_H-M  'P-62m'
_cell_length_a       6.26512
_cell_length_b       6.26512
_cell_length_c       11.3664
_cell_angle_alpha    90
_cell_angle_beta     90
_cell_angle_gamma    120

_symmetry_Int_Tables_number  189
_chemical_formula_structural  P10Au7I
_chemical_formula_sum  P0Au7I
_cell_volume  386.3776962747798
_cell_formula_units_Z  1
loop_
  _symmetry_equiv_pos_site_id
 _symmetry_equiv_pos_as_xyz
 1  'x, y, z'
loop_
 _atom_site_type_symbol
 _atom_site_label
 _atom_site_symmetry_multiplicity
 _atom_site_fract_x
 _atom_site_fract_y
 _atom_site_fract_z
 _atom_site_fract_occupancy
 Au  Au1  1  -0.00000  0.54799  0.00000  1
 Au  Au2  1  0.00000  0.00000  0.22912  1
 Au  Au3  1  0.66667  0.33333  0.50000  1
 Au  Au4  1  0.00000  0.00000  0.77088  1
 Au  Au5  1  0.33333  0.66667  0.50000  1
 Au  Au6  1  0.45201  0.45201  0.00000  1
 Au  Au7  1  0.54799  -0.00000  0.00000  1
 I  I1  1  0.00000  0.00000  0.50000  1
 P  P1  1  -0.00000  0.62507  0.20292  1
 P  P2  1  0.66667  0.33333  0.29456  1
 P  P3  1  -0.00000  0.62507  0.79708  1
 P  P4  1  0.33333  0.66667  0.29456  1
 P  P5  1  0.62507  -0.00000  0.20292  1
 P  P6  1  0.37493  0.37493  0.79708  1
 P  P7  1  0.33333  0.66667  0.70544  1
 P  P8  1  0.66667  0.33333  0.70544  1
 P  P9  1  0.62507  -0.00000  0.79708  1
 P  P10  1  0.37493  0.37493  0.20292  1
