CIF file written using JARVIS-Tools package.
data_BaI2
_symmetry_space_group_name_H-M  'Pnma'
_cell_length_a       5.29564
_cell_length_b       8.90938
_cell_length_c       10.7433
_cell_angle_alpha    90
_cell_angle_beta     90
_cell_angle_gamma    90

_symmetry_Int_Tables_number  62
_chemical_formula_structural  BaI2
_chemical_formula_sum  Ba4I8
_cell_volume  506.87661556777783
_cell_formula_units_Z  4
loop_
  _symmetry_equiv_pos_site_id
 _symmetry_equiv_pos_as_xyz
 1  'x, y, z'
loop_
 _atom_site_type_symbol
 _atom_site_label
 _atom_site_symmetry_multiplicity
 _atom_site_fract_x
 _atom_site_fract_y
 _atom_site_fract_z
 _atom_site_fract_occupancy
 Ba  Ba1  1  0.25000  0.74850  0.62048  1
 Ba  Ba2  1  0.75000  0.25150  0.37952  1
 Ba  Ba3  1  0.25000  0.24850  0.87952  1
 Ba  Ba4  1  0.75000  0.75150  0.12048  1
 I  I1  1  0.25000  0.52728  0.33156  1
 I  I2  1  0.75000  0.47272  0.66844  1
 I  I3  1  0.25000  0.02728  0.16844  1
 I  I4  1  0.75000  0.97272  0.83156  1
 I  I5  1  0.75000  0.85621  0.43034  1
 I  I6  1  0.25000  0.14379  0.56966  1
 I  I7  1  0.75000  0.35621  0.06966  1
 I  I8  1  0.25000  0.64379  0.93034  1
