CIF file written using JARVIS-Tools package.
data_Na2AlH4ClO4
_symmetry_space_group_name_H-M  'P4/nmm'
_cell_length_a       7.57271
_cell_length_b       7.57271
_cell_length_c       4.98462
_cell_angle_alpha    90
_cell_angle_beta     90
_cell_angle_gamma    90

_symmetry_Int_Tables_number  129
_chemical_formula_structural  Na2AlH4ClO4
_chemical_formula_sum  Na4Al2H8Cl2O8
_cell_volume  285.8479987222483
_cell_formula_units_Z  2
loop_
  _symmetry_equiv_pos_site_id
 _symmetry_equiv_pos_as_xyz
 1  'x, y, z'
loop_
 _atom_site_type_symbol
 _atom_site_label
 _atom_site_symmetry_multiplicity
 _atom_site_fract_x
 _atom_site_fract_y
 _atom_site_fract_z
 _atom_site_fract_occupancy
 Al  Al1  1  0.50000  0.50000  0.00000  1
 Al  Al2  1  0.00000  0.00000  0.00000  1
 Cl  Cl1  1  0.50000  0.00000  0.23122  1
 Cl  Cl2  1  0.00000  0.50000  0.76878  1
 H  H1  1  0.79429  0.50000  0.10551  1
 H  H2  1  0.29429  0.00000  0.89449  1
 H  H3  1  0.00000  0.70571  0.10551  1
 H  H4  1  0.00000  0.29429  0.10551  1
 H  H5  1  0.50000  0.79429  0.89449  1
 H  H6  1  0.50000  0.20571  0.89449  1
 H  H7  1  0.70571  0.00000  0.89449  1
 H  H8  1  0.20571  0.50000  0.10551  1
 Na  Na1  1  0.25000  0.25000  0.50000  1
 Na  Na2  1  0.75000  0.25000  0.50000  1
 Na  Na3  1  0.25000  0.75000  0.50000  1
 Na  Na4  1  0.75000  0.75000  0.50000  1
 O  O1  1  0.00000  0.18724  0.21683  1
 O  O2  1  0.31276  0.50000  0.21683  1
 O  O3  1  0.68724  0.50000  0.21683  1
 O  O4  1  0.81276  0.00000  0.78317  1
 O  O5  1  0.18724  0.00000  0.78317  1
 O  O6  1  0.50000  0.68724  0.78317  1
 O  O7  1  0.50000  0.31276  0.78317  1
 O  O8  1  0.00000  0.81276  0.21683  1
