CIF file written using JARVIS-Tools package.
data_MnCoGe
_symmetry_space_group_name_H-M  'Pnma'
_cell_length_a       3.75772
_cell_length_b       5.83583
_cell_length_c       7.07803
_cell_angle_alpha    90
_cell_angle_beta     90
_cell_angle_gamma    90

_symmetry_Int_Tables_number  62
_chemical_formula_structural  MnCoGe
_chemical_formula_sum  Mn4Co4Ge4
_cell_volume  155.2172171623181
_cell_formula_units_Z  4
loop_
  _symmetry_equiv_pos_site_id
 _symmetry_equiv_pos_as_xyz
 1  'x, y, z'
loop_
 _atom_site_type_symbol
 _atom_site_label
 _atom_site_symmetry_multiplicity
 _atom_site_fract_x
 _atom_site_fract_y
 _atom_site_fract_z
 _atom_site_fract_occupancy
 Co  Co1  1  0.75000  0.84291  0.56063  1
 Co  Co2  1  0.75000  0.34291  0.93937  1
 Co  Co3  1  0.25000  0.15709  0.43937  1
 Co  Co4  1  0.25000  0.65709  0.06063  1
 Ge  Ge1  1  0.75000  0.24175  0.62044  1
 Ge  Ge2  1  0.25000  0.75825  0.37956  1
 Ge  Ge3  1  0.75000  0.74175  0.87956  1
 Ge  Ge4  1  0.25000  0.25825  0.12044  1
 Mn  Mn1  1  0.75000  0.46746  0.31024  1
 Mn  Mn2  1  0.25000  0.53254  0.68976  1
 Mn  Mn3  1  0.25000  0.03254  0.81024  1
 Mn  Mn4  1  0.75000  0.96746  0.18976  1
