CIF file written using JARVIS-Tools package.
data_K2As2Pd
_symmetry_space_group_name_H-M  'Cmcm'
_cell_length_a       6.01441
_cell_length_b       6.4551
_cell_length_c       7.8936
_cell_angle_alpha    114.135
_cell_angle_beta     90
_cell_angle_gamma    90

_symmetry_Int_Tables_number  63
_chemical_formula_structural  K2As2Pd
_chemical_formula_sum  K4As4Pd2
_cell_volume  279.6700865344454
_cell_formula_units_Z  2
loop_
  _symmetry_equiv_pos_site_id
 _symmetry_equiv_pos_as_xyz
 1  'x, y, z'
loop_
 _atom_site_type_symbol
 _atom_site_label
 _atom_site_symmetry_multiplicity
 _atom_site_fract_x
 _atom_site_fract_y
 _atom_site_fract_z
 _atom_site_fract_occupancy
 As  As1  1  0.25000  0.69604  0.77243  1
 As  As2  1  0.75000  0.30396  0.22757  1
 As  As3  1  0.75000  0.92361  0.22757  1
 As  As4  1  0.25000  0.07639  0.77243  1
 K  K1  1  0.75000  0.41782  0.83563  1
 K  K2  1  0.25000  0.58218  0.16437  1
 K  K3  1  0.75000  0.79589  0.59178  1
 K  K4  1  0.25000  0.20411  0.40822  1
 Pd  Pd1  1  0.00000  0.00000  0.00000  1
 Pd  Pd2  1  0.50000  0.00000  0.00000  1
