CIF file written using JARVIS-Tools package.
data_CuH2SO5
_symmetry_space_group_name_H-M  'P-1'
_cell_length_a       5.02736
_cell_length_b       5.22506
_cell_length_c       7.72097
_cell_angle_alpha    110.909
_cell_angle_beta     108.497
_cell_angle_gamma    88.0917

_symmetry_Int_Tables_number  2
_chemical_formula_structural  CuH2SO5
_chemical_formula_sum  Cu2H4S2O0
_cell_volume  178.94115824088647
_cell_formula_units_Z  2
loop_
  _symmetry_equiv_pos_site_id
 _symmetry_equiv_pos_as_xyz
 1  'x, y, z'
loop_
 _atom_site_type_symbol
 _atom_site_label
 _atom_site_symmetry_multiplicity
 _atom_site_fract_x
 _atom_site_fract_y
 _atom_site_fract_z
 _atom_site_fract_occupancy
 Cu  Cu1  1  0.50000  0.50000  0.50000  1
 Cu  Cu2  1  0.00000  0.00000  0.00000  1
 H  H1  1  0.80927  0.41856  0.79019  1
 H  H2  1  0.19073  0.58144  0.20981  1
 H  H3  1  0.01014  0.45086  0.67578  1
 H  H4  1  0.98986  0.54914  0.32422  1
 O  O1  1  0.14597  0.46284  0.27643  1
 O  O2  1  0.26229  0.18046  0.92237  1
 O  O3  1  0.30032  0.83687  0.15174  1
 O  O4  1  0.73771  0.81954  0.07763  1
 O  O5  1  0.66552  0.22346  0.32499  1
 O  O6  1  0.27168  0.21079  0.61733  1
 O  O7  1  0.72832  0.78921  0.38267  1
 O  O8  1  0.69968  0.16313  0.84826  1
 O  O9  1  0.33448  0.77654  0.67501  1
 O  O10  1  0.85403  0.53716  0.72357  1
 S  S1  1  0.61366  0.91909  0.23815  1
 S  S2  1  0.38634  0.08091  0.76185  1
