CIF file written using JARVIS-Tools package.
data_DyVO4
_symmetry_space_group_name_H-M  'I4_1/amd'
_cell_length_a       5.9718
_cell_length_b       5.97179
_cell_length_c       5.97179
_cell_angle_alpha    106.289
_cell_angle_beta     106.289
_cell_angle_gamma    116.042

_symmetry_Int_Tables_number  141
_chemical_formula_structural  DyVO4
_chemical_formula_sum  Dy2V2O8
_cell_volume  162.30760940322028
_cell_formula_units_Z  2
loop_
  _symmetry_equiv_pos_site_id
 _symmetry_equiv_pos_as_xyz
 1  'x, y, z'
loop_
 _atom_site_type_symbol
 _atom_site_label
 _atom_site_symmetry_multiplicity
 _atom_site_fract_x
 _atom_site_fract_y
 _atom_site_fract_z
 _atom_site_fract_occupancy
 Dy  Dy1  1  0.87500  0.12500  0.75000  1
 Dy  Dy2  1  0.12500  0.87500  0.25000  1
 O  O1  1  0.79990  0.73508  0.43518  1
 O  O2  1  0.79989  0.36471  0.06482  1
 O  O3  1  0.26492  0.20010  0.06482  1
 O  O4  1  0.20011  0.63529  0.93518  1
 O  O5  1  0.20010  0.26492  0.56482  1
 O  O6  1  0.63529  0.20010  0.43518  1
 O  O7  1  0.73508  0.79989  0.93518  1
 O  O8  1  0.36471  0.79989  0.56482  1
 V  V1  1  0.62500  0.37500  0.25000  1
 V  V2  1  0.37500  0.62500  0.75000  1
