CIF file written using JARVIS-Tools package.
data_CrCoO4
_symmetry_space_group_name_H-M  'Cmcm'
_cell_length_a       4.9108
_cell_length_b       4.91081
_cell_length_c       6.0773
_cell_angle_alpha    89.9991
_cell_angle_beta     89.9996
_cell_angle_gamma    111.217

_symmetry_Int_Tables_number  63
_chemical_formula_structural  CrCoO4
_chemical_formula_sum  Cr2Co2O8
_cell_volume  136.62609454867717
_cell_formula_units_Z  2
loop_
  _symmetry_equiv_pos_site_id
 _symmetry_equiv_pos_as_xyz
 1  'x, y, z'
loop_
 _atom_site_type_symbol
 _atom_site_label
 _atom_site_symmetry_multiplicity
 _atom_site_fract_x
 _atom_site_fract_y
 _atom_site_fract_z
 _atom_site_fract_occupancy
 Co  Co1  1  0.00000  0.00000  0.00000  1
 Co  Co2  1  -0.00000  0.00000  0.50000  1
 Cr  Cr1  1  0.35816  0.64184  0.75000  1
 Cr  Cr2  1  0.64184  0.35816  0.25000  1
 O  O1  1  0.23649  0.76352  0.53224  1
 O  O2  1  0.76351  0.23649  0.03224  1
 O  O3  1  0.78100  0.73480  0.25000  1
 O  O4  1  0.26520  0.21900  0.25000  1
 O  O5  1  0.21900  0.26520  0.75000  1
 O  O6  1  0.73480  0.78100  0.75000  1
 O  O7  1  0.23649  0.76351  0.96776  1
 O  O8  1  0.76351  0.23648  0.46776  1
