CIF file written using JARVIS-Tools package.
data_Li3BP2O8
_symmetry_space_group_name_H-M  'P-1'
_cell_length_a       5.16561
_cell_length_b       7.43619
_cell_length_c       7.74825
_cell_angle_alpha    101.108
_cell_angle_beta     105.194
_cell_angle_gamma    90.2787

_symmetry_Int_Tables_number  2
_chemical_formula_structural  Li3BP2O8
_chemical_formula_sum  Li6B2P4O6
_cell_volume  281.3635890287855
_cell_formula_units_Z  2
loop_
  _symmetry_equiv_pos_site_id
 _symmetry_equiv_pos_as_xyz
 1  'x, y, z'
loop_
 _atom_site_type_symbol
 _atom_site_label
 _atom_site_symmetry_multiplicity
 _atom_site_fract_x
 _atom_site_fract_y
 _atom_site_fract_z
 _atom_site_fract_occupancy
 B  B1  1  0.74146  0.04026  0.76977  1
 B  B2  1  0.25854  0.95974  0.23023  1
 Li  Li1  1  0.22392  0.86517  0.69432  1
 Li  Li2  1  0.77608  0.13483  0.30568  1
 Li  Li3  1  0.32456  0.51448  0.85325  1
 Li  Li4  1  0.67544  0.48552  0.14675  1
 Li  Li5  1  0.85729  0.47210  0.60717  1
 Li  Li6  1  0.14271  0.52790  0.39283  1
 O  O1  1  0.05583  0.81026  0.14622  1
 O  O2  1  0.94310  0.30796  0.18660  1
 O  O3  1  0.05690  0.69204  0.81340  1
 O  O4  1  0.94417  0.18974  0.85378  1
 O  O5  1  0.53158  0.88875  0.28801  1
 O  O6  1  0.39842  0.72558  0.51779  1
 O  O7  1  0.19936  0.37124  0.60052  1
 O  O8  1  0.46842  0.11125  0.71199  1
 O  O9  1  0.71637  0.91839  0.89408  1
 O  O10  1  0.82244  0.93667  0.60825  1
 O  O11  1  0.68777  0.59281  0.94092  1
 O  O12  1  0.31223  0.40719  0.05908  1
 O  O13  1  0.80064  0.62876  0.39948  1
 O  O14  1  0.17756  0.06333  0.39175  1
 O  O15  1  0.28363  0.08161  0.10592  1
 O  O16  1  0.60158  0.27442  0.48221  1
 P  P1  1  0.63161  0.78527  0.45288  1
 P  P2  1  0.36839  0.21473  0.54712  1
 P  P3  1  0.88038  0.74721  0.94399  1
 P  P4  1  0.11962  0.25279  0.05601  1
