CIF file written using JARVIS-Tools package.
data_SCl2
_symmetry_space_group_name_H-M  'P2_12_12_1'
_cell_length_a       4.00007
_cell_length_b       9.08945
_cell_length_c       16.884
_cell_angle_alpha    90
_cell_angle_beta     90
_cell_angle_gamma    90

_symmetry_Int_Tables_number  19
_chemical_formula_structural  SCl2
_chemical_formula_sum  S8Cl6
_cell_volume  613.8771808125662
_cell_formula_units_Z  8
loop_
  _symmetry_equiv_pos_site_id
 _symmetry_equiv_pos_as_xyz
 1  'x, y, z'
loop_
 _atom_site_type_symbol
 _atom_site_label
 _atom_site_symmetry_multiplicity
 _atom_site_fract_x
 _atom_site_fract_y
 _atom_site_fract_z
 _atom_site_fract_occupancy
 Cl  Cl1  1  0.52541  0.97814  0.40946  1
 Cl  Cl2  1  0.02943  0.29357  0.42046  1
 Cl  Cl3  1  0.52943  0.20643  0.57954  1
 Cl  Cl4  1  -0.02943  0.79357  0.07954  1
 Cl  Cl5  1  0.57306  0.63158  0.42639  1
 Cl  Cl6  1  0.05956  0.49799  0.26564  1
 Cl  Cl7  1  0.55956  0.00201  0.73436  1
 Cl  Cl8  1  0.47057  0.70643  0.92046  1
 Cl  Cl9  1  0.44044  0.50201  0.76564  1
 Cl  Cl10  1  0.47459  0.47814  0.09054  1
 Cl  Cl11  1  0.97459  0.02186  0.90946  1
 Cl  Cl12  1  0.07306  0.86842  0.57361  1
 Cl  Cl13  1  0.02541  0.52186  0.59054  1
 Cl  Cl14  1  0.42694  0.13158  0.07361  1
 Cl  Cl15  1  0.92694  0.36842  0.92639  1
 Cl  Cl16  1  0.94044  0.99799  0.23436  1
 S  S1  1  0.87042  0.71108  0.64420  1
 S  S2  1  0.37042  0.78892  0.35580  1
 S  S3  1  0.12958  0.21108  0.85580  1
 S  S4  1  0.62958  0.28892  0.14420  1
 S  S5  1  0.26124  0.69853  0.80819  1
 S  S6  1  0.76124  0.80147  0.19181  1
 S  S7  1  0.73876  0.19853  0.69181  1
 S  S8  1  0.23876  0.30147  0.30819  1
