CIF file written using JARVIS-Tools package.
data_Lu4Ge6Rh7
_symmetry_space_group_name_H-M  'Im-3m'
_cell_length_a       7.18614
_cell_length_b       7.18614
_cell_length_c       7.18614
_cell_angle_alpha    109.471
_cell_angle_beta     109.471
_cell_angle_gamma    109.471

_symmetry_Int_Tables_number  229
_chemical_formula_structural  Lu4Ge6Rh7
_chemical_formula_sum  Lu4Ge6Rh7
_cell_volume  285.6701652314864
_cell_formula_units_Z  1
loop_
  _symmetry_equiv_pos_site_id
 _symmetry_equiv_pos_as_xyz
 1  'x, y, z'
loop_
 _atom_site_type_symbol
 _atom_site_label
 _atom_site_symmetry_multiplicity
 _atom_site_fract_x
 _atom_site_fract_y
 _atom_site_fract_z
 _atom_site_fract_occupancy
 Ge  Ge1  1  0.31669  0.31669  -0.00000  1
 Ge  Ge2  1  0.31669  -0.00000  0.31669  1
 Ge  Ge3  1  0.68331  0.68331  0.00000  1
 Ge  Ge4  1  0.68331  0.00000  0.68331  1
 Ge  Ge5  1  -0.00000  0.31669  0.31669  1
 Ge  Ge6  1  0.00000  0.68331  0.68331  1
 Lu  Lu1  1  0.50000  0.50000  0.50000  1
 Lu  Lu2  1  0.00000  0.00000  0.50000  1
 Lu  Lu3  1  0.00000  0.50000  0.00000  1
 Lu  Lu4  1  0.50000  0.00000  0.00000  1
 Rh  Rh1  1  0.00000  0.00000  0.00000  1
 Rh  Rh2  1  0.50000  0.75000  0.25000  1
 Rh  Rh3  1  0.25000  0.50000  0.75000  1
 Rh  Rh4  1  0.25000  0.75000  0.50000  1
 Rh  Rh5  1  0.50000  0.25000  0.75000  1
 Rh  Rh6  1  0.75000  0.50000  0.25000  1
 Rh  Rh7  1  0.75000  0.25000  0.50000  1
