CIF file written using JARVIS-Tools package.
data_NdGe2
_symmetry_space_group_name_H-M  'I4_1/amd'
_cell_length_a       4.14174
_cell_length_b       4.14174
_cell_length_c       8.68995
_cell_angle_alpha    103.787
_cell_angle_beta     103.787
_cell_angle_gamma    90

_symmetry_Int_Tables_number  141
_chemical_formula_structural  NdGe2
_chemical_formula_sum  Nd2Ge4
_cell_volume  140.3468503765192
_cell_formula_units_Z  2
loop_
  _symmetry_equiv_pos_site_id
 _symmetry_equiv_pos_as_xyz
 1  'x, y, z'
loop_
 _atom_site_type_symbol
 _atom_site_label
 _atom_site_symmetry_multiplicity
 _atom_site_fract_x
 _atom_site_fract_y
 _atom_site_fract_z
 _atom_site_fract_occupancy
 Ge  Ge1  1  0.70446  0.95446  0.90892  1
 Ge  Ge2  1  0.45446  0.20446  0.40892  1
 Ge  Ge3  1  0.54554  0.79554  0.59108  1
 Ge  Ge4  1  0.29554  0.04554  0.09108  1
 Nd  Nd1  1  0.87500  0.62500  0.25000  1
 Nd  Nd2  1  0.12500  0.37500  0.75000  1
