CIF file written using JARVIS-Tools package.
data_Ag2Se
_symmetry_space_group_name_H-M  'Pnma'
_cell_length_a       4.92121
_cell_length_b       7.17466
_cell_length_c       7.00116
_cell_angle_alpha    90
_cell_angle_beta     90
_cell_angle_gamma    90

_symmetry_Int_Tables_number  62
_chemical_formula_structural  Ag2Se
_chemical_formula_sum  Ag8Se4
_cell_volume  247.19712622928287
_cell_formula_units_Z  4
loop_
  _symmetry_equiv_pos_site_id
 _symmetry_equiv_pos_as_xyz
 1  'x, y, z'
loop_
 _atom_site_type_symbol
 _atom_site_label
 _atom_site_symmetry_multiplicity
 _atom_site_fract_x
 _atom_site_fract_y
 _atom_site_fract_z
 _atom_site_fract_occupancy
 Ag  Ag1  1  0.49997  0.85713  0.43039  1
 Ag  Ag2  1  0.00002  0.32926  0.29775  1
 Ag  Ag3  1  -0.00002  0.82926  0.20225  1
 Ag  Ag4  1  0.50003  0.35713  0.06961  1
 Ag  Ag5  1  -0.00003  0.64287  0.56961  1
 Ag  Ag6  1  0.50002  0.17074  0.70225  1
 Ag  Ag7  1  0.49998  0.67074  0.79775  1
 Ag  Ag8  1  0.00003  0.14287  0.93039  1
 Se  Se1  1  0.00001  0.53722  -0.03335  1
 Se  Se2  1  -0.00001  0.03722  0.53335  1
 Se  Se3  1  0.50001  0.96278  0.03335  1
 Se  Se4  1  0.49999  0.46278  0.46665  1
