CIF file written using JARVIS-Tools package.
data_Sr3Fe2O5
_symmetry_space_group_name_H-M  'Immm'
_cell_length_a       3.55306
_cell_length_b       3.87791
_cell_length_c       10.5385
_cell_angle_alpha    100.604
_cell_angle_beta     99.706
_cell_angle_gamma    89.9994

_symmetry_Int_Tables_number  71
_chemical_formula_structural  Sr3Fe2O5
_chemical_formula_sum  Sr3Fe2O5
_cell_volume  140.60903236587382
_cell_formula_units_Z  1
loop_
  _symmetry_equiv_pos_site_id
 _symmetry_equiv_pos_as_xyz
 1  'x, y, z'
loop_
 _atom_site_type_symbol
 _atom_site_label
 _atom_site_symmetry_multiplicity
 _atom_site_fract_x
 _atom_site_fract_y
 _atom_site_fract_z
 _atom_site_fract_occupancy
 Fe  Fe1  1  0.09482  0.09482  0.18967  1
 Fe  Fe2  1  0.90518  0.90517  0.81033  1
 O  O1  1  0.19034  0.19035  0.38073  1
 O  O2  1  0.80966  0.80965  0.61927  1
 O  O3  1  0.09472  0.59473  0.18948  1
 O  O4  1  0.90528  0.40527  0.81052  1
 O  O5  1  0.00000  -0.00000  1.00000  1
 Sr  Sr1  1  0.31466  0.31466  0.62929  1
 Sr  Sr2  1  0.68534  0.68534  0.37071  1
 Sr  Sr3  1  0.50000  0.50000  -0.00000  1
