CIF file written using JARVIS-Tools package.
data_GeH3Cl
_symmetry_space_group_name_H-M  'Cmc2_1'
_cell_length_a       4.46301
_cell_length_b       4.46302
_cell_length_c       8.2741
_cell_angle_alpha    90
_cell_angle_beta     90
_cell_angle_gamma    104.12

_symmetry_Int_Tables_number  36
_chemical_formula_structural  GeH3Cl
_chemical_formula_sum  Ge2H6Cl2
_cell_volume  159.82790362781324
_cell_formula_units_Z  2
loop_
  _symmetry_equiv_pos_site_id
 _symmetry_equiv_pos_as_xyz
 1  'x, y, z'
loop_
 _atom_site_type_symbol
 _atom_site_label
 _atom_site_symmetry_multiplicity
 _atom_site_fract_x
 _atom_site_fract_y
 _atom_site_fract_z
 _atom_site_fract_occupancy
 Cl  Cl1  1  0.83098  0.83098  0.75045  1
 Cl  Cl2  1  0.16902  0.16902  0.25045  1
 Ge  Ge1  1  0.55870  0.55870  0.95291  1
 Ge  Ge2  1  0.44130  0.44130  0.45291  1
 H  H1  1  0.19821  0.56402  0.54461  1
 H  H2  1  0.80179  0.43598  0.04461  1
 H  H3  1  0.43598  0.80179  0.04461  1
 H  H4  1  0.56402  0.19821  0.54461  1
 H  H5  1  0.68627  0.68627  0.36458  1
 H  H6  1  0.31373  0.31373  0.86458  1
