CIF file written using JARVIS-Tools package.
data_MgCr2S5
_symmetry_space_group_name_H-M  'Pmmn'
_cell_length_a       6.05807
_cell_length_b       3.74937
_cell_length_c       14.2187
_cell_angle_alpha    90
_cell_angle_beta     90.0043
_cell_angle_gamma    90

_symmetry_Int_Tables_number  59
_chemical_formula_structural  MgCr2S5
_chemical_formula_sum  Mg2Cr4S0
_cell_volume  322.96154707180824
_cell_formula_units_Z  2
loop_
  _symmetry_equiv_pos_site_id
 _symmetry_equiv_pos_as_xyz
 1  'x, y, z'
loop_
 _atom_site_type_symbol
 _atom_site_label
 _atom_site_symmetry_multiplicity
 _atom_site_fract_x
 _atom_site_fract_y
 _atom_site_fract_z
 _atom_site_fract_occupancy
 Cr  Cr1  1  0.54369  0.00000  0.09987  1
 Cr  Cr2  1  0.45632  0.50000  0.90013  1
 Cr  Cr3  1  0.45631  0.50000  0.59987  1
 Cr  Cr4  1  0.54370  0.00000  0.40013  1
 Mg  Mg1  1  0.08130  0.50000  0.25002  1
 Mg  Mg2  1  0.91870  0.00000  0.74998  1
 S  S1  1  0.62276  0.50000  0.75000  1
 S  S2  1  0.37724  0.00000  0.25000  1
 S  S3  1  0.34520  0.50000  0.06025  1
 S  S4  1  0.65480  0.00000  0.93975  1
 S  S5  1  0.34520  0.50000  0.43973  1
 S  S6  1  0.65479  0.00000  0.56026  1
 S  S7  1  0.87650  0.00000  0.34975  1
 S  S8  1  0.12350  0.50000  0.65025  1
 S  S9  1  0.12351  0.50000  0.84973  1
 S  S10  1  0.87649  0.00000  0.15027  1
