CIF file written using JARVIS-Tools package.
data_SrMnGe
_symmetry_space_group_name_H-M  'P4/nmm'
_cell_length_a       4.39416
_cell_length_b       4.39416
_cell_length_c       7.29129
_cell_angle_alpha    90
_cell_angle_beta     90
_cell_angle_gamma    90

_symmetry_Int_Tables_number  129
_chemical_formula_structural  SrMnGe
_chemical_formula_sum  Sr2Mn2Ge2
_cell_volume  140.78483676558076
_cell_formula_units_Z  2
loop_
  _symmetry_equiv_pos_site_id
 _symmetry_equiv_pos_as_xyz
 1  'x, y, z'
loop_
 _atom_site_type_symbol
 _atom_site_label
 _atom_site_symmetry_multiplicity
 _atom_site_fract_x
 _atom_site_fract_y
 _atom_site_fract_z
 _atom_site_fract_occupancy
 Ge  Ge1  1  0.00000  0.50000  0.81321  1
 Ge  Ge2  1  0.50000  0.00000  0.18679  1
 Mn  Mn1  1  0.00000  0.00000  0.00000  1
 Mn  Mn2  1  0.50000  0.50000  0.00000  1
 Sr  Sr1  1  0.00000  0.50000  0.33037  1
 Sr  Sr2  1  0.50000  0.00000  0.66963  1
