CIF file written using JARVIS-Tools package.
data_Li4H3ClO3
_symmetry_space_group_name_H-M  'P2_1/m'
_cell_length_a       5.3531
_cell_length_b       7.3007
_cell_length_c       6.14318
_cell_angle_alpha    90
_cell_angle_beta     92.9081
_cell_angle_gamma    90

_symmetry_Int_Tables_number  11
_chemical_formula_structural  Li4H3ClO3
_chemical_formula_sum  Li8H6Cl2O6
_cell_volume  239.7747768869029
_cell_formula_units_Z  2
loop_
  _symmetry_equiv_pos_site_id
 _symmetry_equiv_pos_as_xyz
 1  'x, y, z'
loop_
 _atom_site_type_symbol
 _atom_site_label
 _atom_site_symmetry_multiplicity
 _atom_site_fract_x
 _atom_site_fract_y
 _atom_site_fract_z
 _atom_site_fract_occupancy
 Cl  Cl1  1  0.83126  0.25000  0.67848  1
 Cl  Cl2  1  0.16874  0.75000  0.32152  1
 H  H1  1  0.18632  0.04291  0.75997  1
 H  H2  1  0.84081  0.75000  0.60699  1
 H  H3  1  0.15919  0.25000  0.39301  1
 H  H4  1  0.81368  0.54291  0.24003  1
 H  H5  1  0.18632  0.45709  0.75997  1
 H  H6  1  0.81368  0.95709  0.24003  1
 Li  Li1  1  0.06968  0.75000  0.91612  1
 Li  Li2  1  0.35080  0.48379  0.14452  1
 Li  Li3  1  0.35080  0.01621  0.14452  1
 Li  Li4  1  0.64920  0.51621  0.85548  1
 Li  Li5  1  0.60418  0.25000  0.33361  1
 Li  Li6  1  0.39582  0.75000  0.66639  1
 Li  Li7  1  0.93032  0.25000  0.08388  1
 Li  Li8  1  0.64920  0.98379  0.85548  1
 O  O1  1  0.71300  0.45262  0.15779  1
 O  O2  1  0.75320  0.75000  0.74293  1
 O  O3  1  0.24680  0.25000  0.25707  1
 O  O4  1  0.28700  0.54738  0.84221  1
 O  O5  1  0.71300  0.04738  0.15779  1
 O  O6  1  0.28700  0.95262  0.84221  1
