CIF file written using JARVIS-Tools package.
data_KHSeO3
_symmetry_space_group_name_H-M  'P-1'
_cell_length_a       5.00172
_cell_length_b       5.72571
_cell_length_c       6.67328
_cell_angle_alpha    109.703
_cell_angle_beta     107.2
_cell_angle_gamma    91.479

_symmetry_Int_Tables_number  2
_chemical_formula_structural  KHSeO3
_chemical_formula_sum  K2H2Se2O6
_cell_volume  170.19605525646466
_cell_formula_units_Z  2
loop_
  _symmetry_equiv_pos_site_id
 _symmetry_equiv_pos_as_xyz
 1  'x, y, z'
loop_
 _atom_site_type_symbol
 _atom_site_label
 _atom_site_symmetry_multiplicity
 _atom_site_fract_x
 _atom_site_fract_y
 _atom_site_fract_z
 _atom_site_fract_occupancy
 H  H1  1  0.26524  0.10413  0.05399  1
 H  H2  1  0.73476  0.89587  0.94601  1
 K  K1  1  0.35861  0.63981  0.22168  1
 K  K2  1  0.64139  0.36019  0.77832  1
 O  O1  1  0.24014  0.11520  0.90060  1
 O  O2  1  0.75986  0.88480  0.09940  1
 O  O3  1  0.84858  0.40268  0.22388  1
 O  O4  1  0.15142  0.59732  0.77612  1
 O  O5  1  0.28369  0.15314  0.32257  1
 O  O6  1  0.71631  0.84686  0.67743  1
 Se  Se1  1  0.94566  0.17742  0.32974  1
 Se  Se2  1  0.05434  0.82258  0.67026  1
