data_image0
_chemical_formula_structural       AsF6Li
_chemical_formula_sum              "As1 F6 Li1"
_cell_length_a       4.62406
_cell_length_b       4.62406
_cell_length_c       5.00219
_cell_angle_alpha    117.529
_cell_angle_beta     117.529
_cell_angle_gamma    60

_space_group_name_H-M_alt    "P 1"
_space_group_IT_number       1

loop_
  _space_group_symop_operation_xyz
  'x, y, z'

loop_
  _atom_site_type_symbol
  _atom_site_label
  _atom_site_symmetry_multiplicity
  _atom_site_fract_x
  _atom_site_fract_y
  _atom_site_fract_z
  _atom_site_occupancy
  As  As1       1.0  0.00000  0.00000  0.00000  1.0000
  F   F1        1.0  0.38800  0.76800  0.24000  1.0000
  F   F2        1.0  0.76800  0.08300  0.24000  1.0000
  F   F3        1.0  0.08300  0.38800  0.24000  1.0000
  F   F4        1.0  0.91700  0.61200  0.76000  1.0000
  F   F5        1.0  0.23200  0.91700  0.76000  1.0000
  F   F6        1.0  0.61200  0.23200  0.76000  1.0000
  Li  Li1       1.0  0.50000  0.50000  0.50000  1.0000
