CIF file written using JARVIS-Tools package.
data_CaCrO4
_symmetry_space_group_name_H-M  'I4_1/amd'
_cell_length_a       6.02448
_cell_length_b       6.02449
_cell_length_c       6.02448
_cell_angle_alpha    105.909
_cell_angle_beta     105.909
_cell_angle_gamma    116.859

_symmetry_Int_Tables_number  141
_chemical_formula_structural  CaCrO4
_chemical_formula_sum  Ca2Cr2O8
_cell_volume  166.1960050207471
_cell_formula_units_Z  2
loop_
  _symmetry_equiv_pos_site_id
 _symmetry_equiv_pos_as_xyz
 1  'x, y, z'
loop_
 _atom_site_type_symbol
 _atom_site_label
 _atom_site_symmetry_multiplicity
 _atom_site_fract_x
 _atom_site_fract_y
 _atom_site_fract_z
 _atom_site_fract_occupancy
 Ca  Ca1  1  0.87500  0.12500  0.75000  1
 Ca  Ca2  1  0.12500  0.87500  0.25000  1
 Cr  Cr1  1  0.62500  0.37500  0.25000  1
 Cr  Cr2  1  0.37500  0.62500  0.75000  1
 O  O1  1  0.21456  0.28335  0.56879  1
 O  O2  1  0.64577  0.21456  0.43121  1
 O  O3  1  0.28335  0.21456  0.06879  1
 O  O4  1  0.21456  0.64577  0.93121  1
 O  O5  1  0.35423  0.78544  0.56879  1
 O  O6  1  0.78544  0.71665  0.43121  1
 O  O7  1  0.78544  0.35423  0.06879  1
 O  O8  1  0.71665  0.78544  0.93121  1
