CIF file written using JARVIS-Tools package.
data_K2MgC2O6
_symmetry_space_group_name_H-M  'R-3m'
_cell_length_a       6.42942
_cell_length_b       6.42943
_cell_length_c       6.42943
_cell_angle_alpha    47.627
_cell_angle_beta     47.627
_cell_angle_gamma    47.627

_symmetry_Int_Tables_number  166
_chemical_formula_structural  K2MgC2O6
_chemical_formula_sum  K2MgC2O6
_cell_volume  132.78103686940048
_cell_formula_units_Z  1
loop_
  _symmetry_equiv_pos_site_id
 _symmetry_equiv_pos_as_xyz
 1  'x, y, z'
loop_
 _atom_site_type_symbol
 _atom_site_label
 _atom_site_symmetry_multiplicity
 _atom_site_fract_x
 _atom_site_fract_y
 _atom_site_fract_z
 _atom_site_fract_occupancy
 C  C1  1  0.59560  0.59560  0.59560  1
 C  C2  1  0.40440  0.40440  0.40440  1
 K  K1  1  0.78966  0.78966  0.78966  1
 K  K2  1  0.21034  0.21034  0.21034  1
 Mg  Mg1  1  0.00000  0.00000  0.00000  1
 O  O1  1  0.69442  0.26128  0.26128  1
 O  O2  1  0.26128  0.26128  0.69442  1
 O  O3  1  0.26128  0.69442  0.26128  1
 O  O4  1  0.73872  0.30558  0.73872  1
 O  O5  1  0.73872  0.73872  0.30558  1
 O  O6  1  0.30558  0.73872  0.73872  1
