CIF file written using JARVIS-Tools package.
data_YIn2Ni
_symmetry_space_group_name_H-M  'Cmcm'
_cell_length_a       4.33462
_cell_length_b       5.66831
_cell_length_c       7.33947
_cell_angle_alpha    90
_cell_angle_beta     90
_cell_angle_gamma    112.48

_symmetry_Int_Tables_number  63
_chemical_formula_structural  YIn2Ni
_chemical_formula_sum  Y2In4Ni2
_cell_volume  166.628180083728
_cell_formula_units_Z  2
loop_
  _symmetry_equiv_pos_site_id
 _symmetry_equiv_pos_as_xyz
 1  'x, y, z'
loop_
 _atom_site_type_symbol
 _atom_site_label
 _atom_site_symmetry_multiplicity
 _atom_site_fract_x
 _atom_site_fract_y
 _atom_site_fract_z
 _atom_site_fract_occupancy
 In  In1  1  0.35759  0.71518  0.95133  1
 In  In2  1  0.64241  0.28482  0.04867  1
 In  In3  1  0.64241  0.28482  0.45133  1
 In  In4  1  0.35759  0.71518  0.54867  1
 Ni  Ni1  1  0.78810  0.57620  0.75000  1
 Ni  Ni2  1  0.21190  0.42380  0.25000  1
 Y  Y1  1  0.06853  0.13705  0.75000  1
 Y  Y2  1  0.93147  0.86295  0.25000  1
