CIF file written using JARVIS-Tools package.
data_MgBi2O4
_symmetry_space_group_name_H-M  'Cmcm'
_cell_length_a       3.27322
_cell_length_b       5.88273
_cell_length_c       11.108
_cell_angle_alpha    90
_cell_angle_beta     90
_cell_angle_gamma    106.153

_symmetry_Int_Tables_number  63
_chemical_formula_structural  MgBi2O4
_chemical_formula_sum  Mg2Bi4O8
_cell_volume  205.44561942527082
_cell_formula_units_Z  2
loop_
  _symmetry_equiv_pos_site_id
 _symmetry_equiv_pos_as_xyz
 1  'x, y, z'
loop_
 _atom_site_type_symbol
 _atom_site_label
 _atom_site_symmetry_multiplicity
 _atom_site_fract_x
 _atom_site_fract_y
 _atom_site_fract_z
 _atom_site_fract_occupancy
 Bi  Bi1  1  0.86792  0.73584  0.08033  1
 Bi  Bi2  1  0.13208  0.26416  0.91967  1
 Bi  Bi3  1  0.86792  0.73584  0.41967  1
 Bi  Bi4  1  0.13208  0.26416  0.58033  1
 Mg  Mg1  1  0.38846  0.77692  0.75000  1
 Mg  Mg2  1  0.61154  0.22308  0.25000  1
 O  O1  1  0.21578  0.43155  0.37548  1
 O  O2  1  0.78422  0.56845  0.62452  1
 O  O3  1  0.78422  0.56845  0.87548  1
 O  O4  1  0.21578  0.43155  0.12452  1
 O  O5  1  0.99404  0.98808  0.25000  1
 O  O6  1  0.00596  0.01192  0.75000  1
 O  O7  1  0.50000  0.00000  0.00000  1
 O  O8  1  0.50000  0.00000  0.50000  1
