CIF file written using JARVIS-Tools package.
data_Ta2Te4Br10O
_symmetry_space_group_name_H-M  'P-1'
_cell_length_a       6.93676
_cell_length_b       8.79414
_cell_length_c       9.21657
_cell_angle_alpha    82.0004
_cell_angle_beta     86.4137
_cell_angle_gamma    73.9753

_symmetry_Int_Tables_number  2
_chemical_formula_structural  Ta2Te4Br10O
_chemical_formula_sum  Ta2Te4Br0O
_cell_volume  534.9590161738714
_cell_formula_units_Z  1
loop_
  _symmetry_equiv_pos_site_id
 _symmetry_equiv_pos_as_xyz
 1  'x, y, z'
loop_
 _atom_site_type_symbol
 _atom_site_label
 _atom_site_symmetry_multiplicity
 _atom_site_fract_x
 _atom_site_fract_y
 _atom_site_fract_z
 _atom_site_fract_occupancy
 Br  Br1  1  0.84016  0.19461  0.42564  1
 Br  Br2  1  0.66386  0.80333  0.44063  1
 Br  Br3  1  0.33614  0.19667  0.55937  1
 Br  Br4  1  0.52018  0.84291  0.82120  1
 Br  Br5  1  0.47982  0.15709  0.17880  1
 Br  Br6  1  0.62545  0.52460  0.15980  1
 Br  Br7  1  0.15984  0.80539  0.57436  1
 Br  Br8  1  0.37455  0.47540  0.84020  1
 Br  Br9  1  0.13375  0.52118  0.28999  1
 Br  Br10  1  0.86625  0.47882  0.71001  1
 O  O1  1  0.50000  0.50000  0.50000  1
 Ta  Ta1  1  0.49111  0.35624  0.36637  1
 Ta  Ta2  1  0.50889  0.64376  0.63363  1
 Te  Te1  1  0.07855  0.19486  0.99519  1
 Te  Te2  1  0.82088  0.09814  0.83773  1
 Te  Te3  1  0.92145  0.80514  0.00481  1
 Te  Te4  1  0.17912  0.90186  0.16227  1
