CIF file written using JARVIS-Tools package.
data_Ta2AgF12
_symmetry_space_group_name_H-M  'P-1'
_cell_length_a       5.08479
_cell_length_b       5.51384
_cell_length_c       8.99073
_cell_angle_alpha    103.964
_cell_angle_beta     87.8631
_cell_angle_gamma    115.404

_symmetry_Int_Tables_number  2
_chemical_formula_structural  Ta2AgF12
_chemical_formula_sum  Ta2AgF2
_cell_volume  220.3366533090404
_cell_formula_units_Z  1
loop_
  _symmetry_equiv_pos_site_id
 _symmetry_equiv_pos_as_xyz
 1  'x, y, z'
loop_
 _atom_site_type_symbol
 _atom_site_label
 _atom_site_symmetry_multiplicity
 _atom_site_fract_x
 _atom_site_fract_y
 _atom_site_fract_z
 _atom_site_fract_occupancy
 Ag  Ag1  1  0.00000  0.00000  0.00000  1
 F  F1  1  0.82898  0.25218  0.72656  1
 F  F2  1  0.17102  0.74782  0.27344  1
 F  F3  1  0.20001  0.72651  0.92478  1
 F  F4  1  0.70932  0.75022  0.45240  1
 F  F5  1  0.29068  0.24978  0.54760  1
 F  F6  1  0.81501  0.27901  0.37523  1
 F  F7  1  0.18499  0.72099  0.62477  1
 F  F8  1  0.35527  0.30351  0.22439  1
 F  F9  1  0.64473  0.69649  0.77561  1
 F  F10  1  0.71952  0.73804  0.13490  1
 F  F11  1  0.28048  0.26196  0.86510  1
 F  F12  1  0.79999  0.27349  0.07522  1
 Ta  Ta1  1  0.76854  0.52286  0.27694  1
 Ta  Ta2  1  0.23146  0.47714  0.72306  1
