CIF file written using JARVIS-Tools package.
data_CePO4
_symmetry_space_group_name_H-M  'P6_222'
_cell_length_a       7.16565
_cell_length_b       7.16565
_cell_length_c       6.46494
_cell_angle_alpha    90
_cell_angle_beta     90
_cell_angle_gamma    120

_symmetry_Int_Tables_number  180
_chemical_formula_structural  CePO4
_chemical_formula_sum  Ce3P3O2
_cell_volume  287.47887486016623
_cell_formula_units_Z  3
loop_
  _symmetry_equiv_pos_site_id
 _symmetry_equiv_pos_as_xyz
 1  'x, y, z'
loop_
 _atom_site_type_symbol
 _atom_site_label
 _atom_site_symmetry_multiplicity
 _atom_site_fract_x
 _atom_site_fract_y
 _atom_site_fract_z
 _atom_site_fract_occupancy
 Ce  Ce1  1  -0.00000  0.50000  0.66667  1
 Ce  Ce2  1  0.50000  0.50000  0.33333  1
 Ce  Ce3  1  0.50000  -0.00000  0.00000  1
 O  O1  1  0.44617  0.30886  0.98010  1
 O  O2  1  0.69114  0.13731  0.64677  1
 O  O3  1  0.69114  0.55383  0.68657  1
 O  O4  1  0.13731  0.44617  0.31343  1
 O  O5  1  0.86269  0.55383  0.31343  1
 O  O6  1  0.55383  0.69114  0.98010  1
 O  O7  1  0.30886  0.44617  0.68657  1
 O  O8  1  0.55383  0.86269  0.35323  1
 O  O9  1  0.13731  0.69114  0.01990  1
 O  O10  1  0.86269  0.30886  0.01990  1
 O  O11  1  0.44617  0.13731  0.35323  1
 O  O12  1  0.30886  0.86269  0.64677  1
 P  P1  1  0.50000  -0.00000  0.50000  1
 P  P2  1  0.50000  0.50000  0.83333  1
 P  P3  1  -0.00000  0.50000  0.16667  1
