CIF file written using JARVIS-Tools package.
data_CdAs
_symmetry_space_group_name_H-M  'Pbca'
_cell_length_a       6.12678
_cell_length_b       7.91264
_cell_length_c       8.13189
_cell_angle_alpha    90
_cell_angle_beta     90
_cell_angle_gamma    90

_symmetry_Int_Tables_number  61
_chemical_formula_structural  CdAs
_chemical_formula_sum  Cd8As8
_cell_volume  394.225792358475
_cell_formula_units_Z  8
loop_
  _symmetry_equiv_pos_site_id
 _symmetry_equiv_pos_as_xyz
 1  'x, y, z'
loop_
 _atom_site_type_symbol
 _atom_site_label
 _atom_site_symmetry_multiplicity
 _atom_site_fract_x
 _atom_site_fract_y
 _atom_site_fract_z
 _atom_site_fract_occupancy
 As  As1  1  0.63313  0.06538  0.40362  1
 As  As2  1  0.13313  0.43462  0.59638  1
 As  As3  1  0.36687  0.56538  0.09638  1
 As  As4  1  0.86687  0.93462  0.90362  1
 As  As5  1  0.36687  0.93462  0.59638  1
 As  As6  1  0.86687  0.56538  0.40362  1
 As  As7  1  0.63313  0.43462  0.90362  1
 As  As8  1  0.13313  0.06538  0.09638  1
 Cd  Cd1  1  0.05026  0.63196  0.86169  1
 Cd  Cd2  1  0.55026  0.86804  0.13831  1
 Cd  Cd3  1  0.94974  0.13196  0.63831  1
 Cd  Cd4  1  0.44974  0.36804  0.36169  1
 Cd  Cd5  1  0.94974  0.36804  0.13831  1
 Cd  Cd6  1  0.44974  0.13196  0.86169  1
 Cd  Cd7  1  0.05026  0.86804  0.36169  1
 Cd  Cd8  1  0.55026  0.63196  0.63831  1
