CIF file written using JARVIS-Tools package.
data_SmMn2Ge2
_symmetry_space_group_name_H-M  'I4/mmm'
_cell_length_a       3.97101
_cell_length_b       3.97101
_cell_length_c       6.14013
_cell_angle_alpha    108.867
_cell_angle_beta     108.867
_cell_angle_gamma    90

_symmetry_Int_Tables_number  139
_chemical_formula_structural  SmMn2Ge2
_chemical_formula_sum  SmMn2Ge2
_cell_volume  86.1057711367219
_cell_formula_units_Z  1
loop_
  _symmetry_equiv_pos_site_id
 _symmetry_equiv_pos_as_xyz
 1  'x, y, z'
loop_
 _atom_site_type_symbol
 _atom_site_label
 _atom_site_symmetry_multiplicity
 _atom_site_fract_x
 _atom_site_fract_y
 _atom_site_fract_z
 _atom_site_fract_occupancy
 Ge  Ge1  1  0.62209  0.62209  0.24418  1
 Ge  Ge2  1  0.37791  0.37791  0.75582  1
 Mn  Mn1  1  0.25000  0.75000  0.50000  1
 Mn  Mn2  1  0.75000  0.25000  0.50000  1
 Sm  Sm1  1  0.00000  0.00000  0.00000  1
