CIF file written using JARVIS-Tools package.
data_Ca2Fe3O8
_symmetry_space_group_name_H-M  'C2/m'
_cell_length_a       4.92874
_cell_length_b       5.84072
_cell_length_c       6.20123
_cell_angle_alpha    118.095
_cell_angle_beta     107.324
_cell_angle_gamma    90

_symmetry_Int_Tables_number  12
_chemical_formula_structural  Ca2Fe3O8
_chemical_formula_sum  Ca2Fe3O8
_cell_volume  148.23982647772516
_cell_formula_units_Z  1
loop_
  _symmetry_equiv_pos_site_id
 _symmetry_equiv_pos_as_xyz
 1  'x, y, z'
loop_
 _atom_site_type_symbol
 _atom_site_label
 _atom_site_symmetry_multiplicity
 _atom_site_fract_x
 _atom_site_fract_y
 _atom_site_fract_z
 _atom_site_fract_occupancy
 Ca  Ca1  1  0.66965  0.72458  0.44917  1
 Ca  Ca2  1  0.33035  0.27542  0.55083  1
 Fe  Fe1  1  0.50000  1.00000  0.00000  1
 Fe  Fe2  1  1.00000  0.74365  -0.00000  1
 Fe  Fe3  1  1.00000  0.25635  0.00000  1
 O  O1  1  0.03674  0.39816  0.79633  1
 O  O2  1  0.96326  0.60184  0.20367  1
 O  O3  1  0.10043  0.90364  0.80728  1
 O  O4  1  0.89957  0.09636  0.19272  1
 O  O5  1  0.38959  0.32056  0.19900  1
 O  O6  1  0.38959  0.87844  0.19900  1
 O  O7  1  0.61041  0.12156  0.80100  1
 O  O8  1  0.61041  0.67944  0.80100  1
