CIF file written using JARVIS-Tools package.
data_SrLi4N2
_symmetry_space_group_name_H-M  'I4_1/amd'
_cell_length_a       3.7855
_cell_length_b       3.7855
_cell_length_c       13.7134
_cell_angle_alpha    97.9334
_cell_angle_beta     97.9334
_cell_angle_gamma    90

_symmetry_Int_Tables_number  141
_chemical_formula_structural  SrLi4N2
_chemical_formula_sum  Sr2Li8N4
_cell_volume  192.73334234435228
_cell_formula_units_Z  2
loop_
  _symmetry_equiv_pos_site_id
 _symmetry_equiv_pos_as_xyz
 1  'x, y, z'
loop_
 _atom_site_type_symbol
 _atom_site_label
 _atom_site_symmetry_multiplicity
 _atom_site_fract_x
 _atom_site_fract_y
 _atom_site_fract_z
 _atom_site_fract_occupancy
 Li  Li1  1  0.72882  0.97882  0.95764  1
 Li  Li2  1  0.47882  0.22882  0.45764  1
 Li  Li3  1  0.05257  0.30257  0.60514  1
 Li  Li4  1  0.80257  0.55257  0.10514  1
 Li  Li5  1  0.94743  0.69743  0.39486  1
 Li  Li6  1  0.27118  0.02118  0.04236  1
 Li  Li7  1  0.52118  0.77118  0.54236  1
 Li  Li8  1  0.19743  0.44743  0.89486  1
 N  N1  1  0.19363  0.94363  0.88725  1
 N  N2  1  0.44363  0.69363  0.38725  1
 N  N3  1  0.80637  0.05637  0.11275  1
 N  N4  1  0.55637  0.30637  0.61275  1
 Sr  Sr1  1  0.62500  0.87500  0.75000  1
 Sr  Sr2  1  0.37500  0.12500  0.25000  1
