CIF file written using JARVIS-Tools package.
data_Tl3SbS4
_symmetry_space_group_name_H-M  'P-1'
_cell_length_a       6.33155
_cell_length_b       6.39702
_cell_length_c       11.8468
_cell_angle_alpha    95.4718
_cell_angle_beta     99.1405
_cell_angle_gamma    104.027

_symmetry_Int_Tables_number  2
_chemical_formula_structural  Tl3SbS4
_chemical_formula_sum  Tl6Sb2S8
_cell_volume  455.1016255412373
_cell_formula_units_Z  2
loop_
  _symmetry_equiv_pos_site_id
 _symmetry_equiv_pos_as_xyz
 1  'x, y, z'
loop_
 _atom_site_type_symbol
 _atom_site_label
 _atom_site_symmetry_multiplicity
 _atom_site_fract_x
 _atom_site_fract_y
 _atom_site_fract_z
 _atom_site_fract_occupancy
 S  S1  1  0.07898  0.19656  0.26277  1
 S  S2  1  0.54555  0.04001  0.39285  1
 S  S3  1  0.83260  0.90305  0.71530  1
 S  S4  1  0.45825  0.29632  0.71600  1
 S  S5  1  -0.00833  0.45288  0.58592  1
 S  S6  1  0.50583  0.04513  0.05735  1
 S  S7  1  0.70461  0.58985  0.26348  1
 S  S8  1  0.03138  0.44776  0.92142  1
 Sb  Sb1  1  0.83203  0.27581  0.73204  1
 Sb  Sb2  1  0.70518  0.21708  0.24673  1
 Tl  Tl1  1  0.49695  0.52342  0.49461  1
 Tl  Tl2  1  0.21620  0.68220  0.20140  1
 Tl  Tl3  1  0.04023  0.96943  0.48417  1
 Tl  Tl4  1  0.97785  -0.00663  -0.00020  1
 Tl  Tl5  1  0.32102  0.81068  0.77739  1
 Tl  Tl6  1  0.55937  0.49955  0.97898  1
