CIF file written using JARVIS-Tools package.
data_Sr5As3H
_symmetry_space_group_name_H-M  'P6_3/mcm'
_cell_length_a       8.96174
_cell_length_b       8.96174
_cell_length_c       7.05922
_cell_angle_alpha    90
_cell_angle_beta     90
_cell_angle_gamma    120

_symmetry_Int_Tables_number  193
_chemical_formula_structural  Sr5As3H
_chemical_formula_sum  Sr0As6H2
_cell_volume  490.9893096849351
_cell_formula_units_Z  2
loop_
  _symmetry_equiv_pos_site_id
 _symmetry_equiv_pos_as_xyz
 1  'x, y, z'
loop_
 _atom_site_type_symbol
 _atom_site_label
 _atom_site_symmetry_multiplicity
 _atom_site_fract_x
 _atom_site_fract_y
 _atom_site_fract_z
 _atom_site_fract_occupancy
 As  As1  1  0.60802  0.00000  0.75000  1
 As  As2  1  -0.00000  0.39198  0.25000  1
 As  As3  1  0.60802  0.60802  0.25000  1
 As  As4  1  0.39198  0.39198  0.75000  1
 As  As5  1  0.00000  0.60802  0.75000  1
 As  As6  1  0.39198  -0.00000  0.25000  1
 H  H1  1  0.00000  0.00000  0.00000  1
 H  H2  1  0.00000  0.00000  0.50000  1
 Sr  Sr1  1  0.00000  0.75141  0.25000  1
 Sr  Sr2  1  -0.00000  0.24859  0.75000  1
 Sr  Sr3  1  0.24859  0.24859  0.25000  1
 Sr  Sr4  1  0.33333  0.66667  0.50000  1
 Sr  Sr5  1  0.24859  -0.00000  0.75000  1
 Sr  Sr6  1  0.66667  0.33333  0.50000  1
 Sr  Sr7  1  0.33333  0.66667  0.00000  1
 Sr  Sr8  1  0.66667  0.33333  0.00000  1
 Sr  Sr9  1  0.75141  0.75141  0.75000  1
 Sr  Sr10  1  0.75141  0.00000  0.25000  1
