CIF file written using JARVIS-Tools package.
data_CeVO4
_symmetry_space_group_name_H-M  'I4_1/amd'
_cell_length_a       6.0955
_cell_length_b       6.09551
_cell_length_c       6.0955
_cell_angle_alpha    106.457
_cell_angle_beta     106.457
_cell_angle_gamma    115.685

_symmetry_Int_Tables_number  141
_chemical_formula_structural  CeVO4
_chemical_formula_sum  Ce2V2O8
_cell_volume  172.78957033363076
_cell_formula_units_Z  2
loop_
  _symmetry_equiv_pos_site_id
 _symmetry_equiv_pos_as_xyz
 1  'x, y, z'
loop_
 _atom_site_type_symbol
 _atom_site_label
 _atom_site_symmetry_multiplicity
 _atom_site_fract_x
 _atom_site_fract_y
 _atom_site_fract_z
 _atom_site_fract_occupancy
 Ce  Ce1  1  0.87500  0.12500  0.75000  1
 Ce  Ce2  1  0.12500  0.87500  0.25000  1
 O  O1  1  0.79926  0.73250  0.43324  1
 O  O2  1  0.79926  0.36603  0.06676  1
 O  O3  1  0.26750  0.20074  0.06676  1
 O  O4  1  0.20074  0.63397  0.93324  1
 O  O5  1  0.20074  0.26750  0.56676  1
 O  O6  1  0.63397  0.20074  0.43324  1
 O  O7  1  0.36603  0.79926  0.56676  1
 O  O8  1  0.73250  0.79926  0.93324  1
 V  V1  1  0.62500  0.37500  0.25000  1
 V  V2  1  0.37500  0.62500  0.75000  1
