CIF file written using JARVIS-Tools package.
data_Fe3PO7
_symmetry_space_group_name_H-M  'R3m'
_cell_length_a       5.21958
_cell_length_b       5.21958
_cell_length_c       5.21958
_cell_angle_alpha    101.755
_cell_angle_beta     101.755
_cell_angle_gamma    101.755

_symmetry_Int_Tables_number  160
_chemical_formula_structural  Fe3PO7
_chemical_formula_sum  Fe3PO7
_cell_volume  131.7634440163304
_cell_formula_units_Z  1
loop_
  _symmetry_equiv_pos_site_id
 _symmetry_equiv_pos_as_xyz
 1  'x, y, z'
loop_
 _atom_site_type_symbol
 _atom_site_label
 _atom_site_symmetry_multiplicity
 _atom_site_fract_x
 _atom_site_fract_y
 _atom_site_fract_z
 _atom_site_fract_occupancy
 Fe  Fe1  1  0.54430  0.54430  0.15192  1
 Fe  Fe2  1  0.15192  0.54430  0.54429  1
 Fe  Fe3  1  0.54430  0.15192  0.54429  1
 O  O1  1  0.14669  0.83320  0.83320  1
 O  O2  1  0.83320  0.83320  0.14669  1
 O  O3  1  0.83320  0.14669  0.83320  1
 O  O4  1  0.77021  0.38974  0.38974  1
 O  O5  1  0.23054  0.23054  0.23054  1
 O  O6  1  0.38974  0.38974  0.77021  1
 O  O7  1  0.38974  0.77021  0.38974  1
 P  P1  1  0.00417  0.00417  0.00417  1
