CIF file written using JARVIS-Tools package.
data_Na2SO3
_symmetry_space_group_name_H-M  'P-3'
_cell_length_a       5.47374
_cell_length_b       5.47374
_cell_length_c       6.06184
_cell_angle_alpha    90
_cell_angle_beta     90
_cell_angle_gamma    120

_symmetry_Int_Tables_number  147
_chemical_formula_structural  Na2SO3
_chemical_formula_sum  Na4S2O6
_cell_volume  157.29132241923352
_cell_formula_units_Z  2
loop_
  _symmetry_equiv_pos_site_id
 _symmetry_equiv_pos_as_xyz
 1  'x, y, z'
loop_
 _atom_site_type_symbol
 _atom_site_label
 _atom_site_symmetry_multiplicity
 _atom_site_fract_x
 _atom_site_fract_y
 _atom_site_fract_z
 _atom_site_fract_occupancy
 Na  Na1  1  0.33333  0.66667  0.65735  1
 Na  Na2  1  0.00000  0.00000  0.50000  1
 Na  Na3  1  0.66667  0.33333  0.34265  1
 Na  Na4  1  0.00000  0.00000  0.00000  1
 O  O1  1  0.73602  0.11810  0.73465  1
 O  O2  1  0.38208  0.26398  0.73465  1
 O  O3  1  0.88190  0.61792  0.73465  1
 O  O4  1  0.26398  0.88190  0.26535  1
 O  O5  1  0.11810  0.38208  0.26535  1
 O  O6  1  0.61792  0.73602  0.26535  1
 S  S1  1  0.33333  0.66667  0.16159  1
 S  S2  1  0.66667  0.33333  0.83841  1
