CIF file written using JARVIS-Tools package.
data_CoO2
_symmetry_space_group_name_H-M  'R-3m'
_cell_length_a       2.82434
_cell_length_b       4.61463
_cell_length_c       4.89187
_cell_angle_alpha    100.129
_cell_angle_beta     90
_cell_angle_gamma    72.1804

_symmetry_Int_Tables_number  166
_chemical_formula_structural  CoO2
_chemical_formula_sum  Co2O4
_cell_volume  59.65370639890055
_cell_formula_units_Z  2
loop_
  _symmetry_equiv_pos_site_id
 _symmetry_equiv_pos_as_xyz
 1  'x, y, z'
loop_
 _atom_site_type_symbol
 _atom_site_label
 _atom_site_symmetry_multiplicity
 _atom_site_fract_x
 _atom_site_fract_y
 _atom_site_fract_z
 _atom_site_fract_occupancy
 Co  Co1  1  0.00000  0.00000  0.00000  1
 Co  Co2  1  0.50000  -0.00000  0.50000  1
 O  O1  1  0.89298  0.21403  0.36886  1
 O  O2  1  0.39298  0.21403  0.86886  1
 O  O3  1  0.10702  0.78597  0.63114  1
 O  O4  1  0.60702  0.78597  0.13114  1
