CIF file written using JARVIS-Tools package.
data_KC
_symmetry_space_group_name_H-M  'I4_1/acd'
_cell_length_a       7.56549
_cell_length_b       7.56549
_cell_length_c       9.01007
_cell_angle_alpha    114.824
_cell_angle_beta     114.824
_cell_angle_gamma    90

_symmetry_Int_Tables_number  142
_chemical_formula_structural  KC
_chemical_formula_sum  K8C8
_cell_volume  414.9672557408267
_cell_formula_units_Z  8
loop_
  _symmetry_equiv_pos_site_id
 _symmetry_equiv_pos_as_xyz
 1  'x, y, z'
loop_
 _atom_site_type_symbol
 _atom_site_label
 _atom_site_symmetry_multiplicity
 _atom_site_fract_x
 _atom_site_fract_y
 _atom_site_fract_z
 _atom_site_fract_occupancy
 C  C1  1  0.93395  0.68395  0.75000  1
 C  C2  1  0.56605  0.93395  0.25000  1
 C  C3  1  0.68395  0.81605  0.25000  1
 C  C4  1  0.81605  0.56605  0.75000  1
 C  C5  1  0.06605  0.31605  0.25000  1
 C  C6  1  0.43395  0.06605  0.75000  1
 C  C7  1  0.31605  0.18395  0.75000  1
 C  C8  1  0.18395  0.43395  0.25000  1
 K  K1  1  0.94169  0.25000  0.50000  1
 K  K2  1  0.75000  0.94169  0.00000  1
 K  K3  1  0.25000  0.55831  -0.00000  1
 K  K4  1  0.55831  0.75000  0.50000  1
 K  K5  1  0.05831  0.75000  0.50000  1
 K  K6  1  0.25000  0.05831  -0.00000  1
 K  K7  1  0.75000  0.44169  0.00000  1
 K  K8  1  0.44169  0.25000  0.50000  1
