CIF file written using JARVIS-Tools package.
data_MnAs
_symmetry_space_group_name_H-M  'Pnma'
_cell_length_a       3.43962
_cell_length_b       5.57696
_cell_length_c       6.03086
_cell_angle_alpha    90
_cell_angle_beta     90
_cell_angle_gamma    90

_symmetry_Int_Tables_number  62
_chemical_formula_structural  MnAs
_chemical_formula_sum  Mn4As4
_cell_volume  115.68767179563015
_cell_formula_units_Z  4
loop_
  _symmetry_equiv_pos_site_id
 _symmetry_equiv_pos_as_xyz
 1  'x, y, z'
loop_
 _atom_site_type_symbol
 _atom_site_label
 _atom_site_symmetry_multiplicity
 _atom_site_fract_x
 _atom_site_fract_y
 _atom_site_fract_z
 _atom_site_fract_occupancy
 As  As1  1  0.75000  0.79995  0.58271  1
 As  As2  1  0.25000  0.20005  0.41729  1
 As  As3  1  0.75000  0.29995  0.91729  1
 As  As4  1  0.25000  0.70005  0.08271  1
 Mn  Mn1  1  0.75000  0.99685  0.19114  1
 Mn  Mn2  1  0.25000  0.00315  0.80886  1
 Mn  Mn3  1  0.75000  0.49685  0.30886  1
 Mn  Mn4  1  0.25000  0.50315  0.69114  1
