CIF file written using JARVIS-Tools package.
data_Ca2TaBiO6
_symmetry_space_group_name_H-M  'P2_1/m'
_cell_length_a       5.75711
_cell_length_b       8.07164
_cell_length_c       5.9722
_cell_angle_alpha    90
_cell_angle_beta     91.0029
_cell_angle_gamma    90

_symmetry_Int_Tables_number  11
_chemical_formula_structural  Ca2TaBiO6
_chemical_formula_sum  Ca4Ta2Bi2O2
_cell_volume  277.4811834761019
_cell_formula_units_Z  2
loop_
  _symmetry_equiv_pos_site_id
 _symmetry_equiv_pos_as_xyz
 1  'x, y, z'
loop_
 _atom_site_type_symbol
 _atom_site_label
 _atom_site_symmetry_multiplicity
 _atom_site_fract_x
 _atom_site_fract_y
 _atom_site_fract_z
 _atom_site_fract_occupancy
 Bi  Bi1  1  0.50000  0.00000  0.00000  1
 Bi  Bi2  1  0.50000  0.50000  0.00000  1
 Ca  Ca1  1  0.98856  0.75000  0.94384  1
 Ca  Ca2  1  0.49978  0.75000  0.44549  1
 Ca  Ca3  1  0.50022  0.25000  0.55451  1
 Ca  Ca4  1  0.01144  0.25000  0.05616  1
 O  O1  1  0.15514  0.44209  0.78902  1
 O  O2  1  0.64935  0.25000  0.91988  1
 O  O3  1  0.84486  0.55791  0.21098  1
 O  O4  1  0.29006  0.05898  0.33973  1
 O  O5  1  0.70994  0.55898  0.66027  1
 O  O6  1  0.29006  0.44102  0.33973  1
 O  O7  1  0.35065  0.75000  0.08012  1
 O  O8  1  0.15514  0.05791  0.78902  1
 O  O9  1  0.89707  0.25000  0.45264  1
 O  O10  1  0.84486  0.94209  0.21098  1
 O  O11  1  0.70994  0.94102  0.66027  1
 O  O12  1  0.10293  0.75000  0.54736  1
 Ta  Ta1  1  0.00000  0.50000  0.50000  1
 Ta  Ta2  1  0.00000  0.00000  0.50000  1
