CIF file written using JARVIS-Tools package.
data_Na2Zn2O3
_symmetry_space_group_name_H-M  'P2_1/c'
_cell_length_a       5.86267
_cell_length_b       5.90994
_cell_length_c       5.99342
_cell_angle_alpha    90
_cell_angle_beta     118.26
_cell_angle_gamma    90

_symmetry_Int_Tables_number  14
_chemical_formula_structural  Na2Zn2O3
_chemical_formula_sum  Na4Zn4O6
_cell_volume  182.90941945265254
_cell_formula_units_Z  2
loop_
  _symmetry_equiv_pos_site_id
 _symmetry_equiv_pos_as_xyz
 1  'x, y, z'
loop_
 _atom_site_type_symbol
 _atom_site_label
 _atom_site_symmetry_multiplicity
 _atom_site_fract_x
 _atom_site_fract_y
 _atom_site_fract_z
 _atom_site_fract_occupancy
 Na  Na1  1  0.86569  0.34312  0.09908  1
 Na  Na2  1  0.86569  0.15688  0.59908  1
 Na  Na3  1  0.13431  0.65688  0.90092  1
 Na  Na4  1  0.13431  0.84312  0.40092  1
 O  O1  1  0.00000  0.50000  0.50000  1
 O  O2  1  0.64611  0.58466  0.75635  1
 O  O3  1  0.35389  0.08466  0.74365  1
 O  O4  1  0.35389  0.41534  0.24365  1
 O  O5  1  0.00000  0.00000  0.00000  1
 O  O6  1  0.64611  0.91534  0.25635  1
 Zn  Zn1  1  0.34156  0.12401  0.08105  1
 Zn  Zn2  1  0.34156  0.37599  0.58105  1
 Zn  Zn3  1  0.65844  0.87599  0.91895  1
 Zn  Zn4  1  0.65844  0.62401  0.41895  1
