CIF file written using JARVIS-Tools package.
data_CaTi2S5
_symmetry_space_group_name_H-M  'Pmmn'
_cell_length_a       6.10642
_cell_length_b       4.1278
_cell_length_c       14.6508
_cell_angle_alpha    90
_cell_angle_beta     89.9999
_cell_angle_gamma    90

_symmetry_Int_Tables_number  59
_chemical_formula_structural  CaTi2S5
_chemical_formula_sum  Ca2Ti4S0
_cell_volume  369.29000896861953
_cell_formula_units_Z  2
loop_
  _symmetry_equiv_pos_site_id
 _symmetry_equiv_pos_as_xyz
 1  'x, y, z'
loop_
 _atom_site_type_symbol
 _atom_site_label
 _atom_site_symmetry_multiplicity
 _atom_site_fract_x
 _atom_site_fract_y
 _atom_site_fract_z
 _atom_site_fract_occupancy
 Ca  Ca1  1  0.10151  0.75000  0.75000  1
 Ca  Ca2  1  0.89849  0.25000  0.25000  1
 S  S1  1  0.56221  0.75000  0.25000  1
 S  S2  1  0.43779  0.25000  0.75000  1
 S  S3  1  0.38702  0.75000  0.92784  1
 S  S4  1  0.61298  0.25000  0.07216  1
 S  S5  1  0.38702  0.75000  0.57216  1
 S  S6  1  0.61298  0.25000  0.42784  1
 S  S7  1  0.92462  0.25000  0.62958  1
 S  S8  1  0.07538  0.75000  0.37042  1
 S  S9  1  0.07538  0.75000  0.12958  1
 S  S10  1  0.92462  0.25000  0.87042  1
 Ti  Ti1  1  0.57694  0.25000  0.90235  1
 Ti  Ti2  1  0.42306  0.75000  0.09765  1
 Ti  Ti3  1  0.42306  0.75000  0.40235  1
 Ti  Ti4  1  0.57694  0.25000  0.59765  1
