CIF file written using JARVIS-Tools package.
data_Ca3SnH2
_symmetry_space_group_name_H-M  'Cmcm'
_cell_length_a       5.23447
_cell_length_b       7.16387
_cell_length_c       7.16387
_cell_angle_alpha    104.054
_cell_angle_beta     90
_cell_angle_gamma    90

_symmetry_Int_Tables_number  63
_chemical_formula_structural  Ca3SnH2
_chemical_formula_sum  Ca6Sn2H4
_cell_volume  260.5969008096077
_cell_formula_units_Z  2
loop_
  _symmetry_equiv_pos_site_id
 _symmetry_equiv_pos_as_xyz
 1  'x, y, z'
loop_
 _atom_site_type_symbol
 _atom_site_label
 _atom_site_symmetry_multiplicity
 _atom_site_fract_x
 _atom_site_fract_y
 _atom_site_fract_z
 _atom_site_fract_occupancy
 Ca  Ca1  1  0.25000  0.89011  0.10989  1
 Ca  Ca2  1  0.25000  0.40894  0.18648  1
 Ca  Ca3  1  0.75000  0.18648  0.40894  1
 Ca  Ca4  1  0.25000  0.81352  0.59106  1
 Ca  Ca5  1  0.75000  0.59106  0.81352  1
 Ca  Ca6  1  0.75000  0.10989  0.89011  1
 H  H1  1  0.00000  0.15193  0.15193  1
 H  H2  1  0.50000  0.15193  0.15193  1
 H  H3  1  0.00000  0.84807  0.84807  1
 H  H4  1  0.50000  0.84807  0.84807  1
 Sn  Sn1  1  0.75000  0.69233  0.30767  1
 Sn  Sn2  1  0.25000  0.30767  0.69233  1
