CIF file written using JARVIS-Tools package.
data_CaCr2O4
_symmetry_space_group_name_H-M  'R3m'
_cell_length_a       6.52601
_cell_length_b       5.96815
_cell_length_c       5.96816
_cell_angle_alpha    60
_cell_angle_beta     62.7896
_cell_angle_gamma    62.7896

_symmetry_Int_Tables_number  160
_chemical_formula_structural  CaCr2O4
_chemical_formula_sum  Ca2Cr4O8
_cell_volume  170.95862958418283
_cell_formula_units_Z  2
loop_
  _symmetry_equiv_pos_site_id
 _symmetry_equiv_pos_as_xyz
 1  'x, y, z'
loop_
 _atom_site_type_symbol
 _atom_site_label
 _atom_site_symmetry_multiplicity
 _atom_site_fract_x
 _atom_site_fract_y
 _atom_site_fract_z
 _atom_site_fract_occupancy
 Ca  Ca1  1  0.05087  0.98304  0.98304  1
 Ca  Ca2  1  0.09098  0.63634  0.63634  1
 Cr  Cr1  1  0.54891  0.15036  0.15036  1
 Cr  Cr2  1  0.60024  0.13979  0.62999  1
 Cr  Cr3  1  0.60024  0.62999  0.13979  1
 Cr  Cr4  1  0.60024  0.62999  0.62999  1
 O  O1  1  0.39686  0.37224  0.37224  1
 O  O2  1  0.39686  0.37224  0.85865  1
 O  O3  1  0.39686  0.85865  0.37224  1
 O  O4  1  0.77606  0.40798  0.40798  1
 O  O5  1  0.43366  0.85545  0.85545  1
 O  O6  1  0.78607  0.40209  0.90592  1
 O  O7  1  0.78607  0.90592  0.40209  1
 O  O8  1  0.78607  0.90592  0.90592  1
