CIF file written using JARVIS-Tools package.
data_Tl2PdSe2
_symmetry_space_group_name_H-M  'Pbam'
_cell_length_a       3.73287
_cell_length_b       6.18663
_cell_length_c       11.3808
_cell_angle_alpha    90
_cell_angle_beta     90
_cell_angle_gamma    90

_symmetry_Int_Tables_number  55
_chemical_formula_structural  Tl2PdSe2
_chemical_formula_sum  Tl4Pd2Se4
_cell_volume  262.8259514269072
_cell_formula_units_Z  2
loop_
  _symmetry_equiv_pos_site_id
 _symmetry_equiv_pos_as_xyz
 1  'x, y, z'
loop_
 _atom_site_type_symbol
 _atom_site_label
 _atom_site_symmetry_multiplicity
 _atom_site_fract_x
 _atom_site_fract_y
 _atom_site_fract_z
 _atom_site_fract_occupancy
 Pd  Pd1  1  0.00000  0.00000  0.00000  1
 Pd  Pd2  1  0.00000  0.50000  0.50000  1
 Se  Se1  1  0.50000  0.68118  0.38861  1
 Se  Se2  1  0.50000  0.31882  0.61139  1
 Se  Se3  1  0.50000  0.18118  0.11139  1
 Se  Se4  1  0.50000  0.81882  0.88861  1
 Tl  Tl1  1  0.00000  0.61196  0.15310  1
 Tl  Tl2  1  0.00000  0.38804  0.84690  1
 Tl  Tl3  1  0.00000  0.11196  0.34690  1
 Tl  Tl4  1  0.00000  0.88804  0.65310  1
