CIF file written using JARVIS-Tools package.
data_Be3Ru
_symmetry_space_group_name_H-M  'P6_3/mmc'
_cell_length_a       4.80056
_cell_length_b       4.80056
_cell_length_c       3.76633
_cell_angle_alpha    90
_cell_angle_beta     90
_cell_angle_gamma    120

_symmetry_Int_Tables_number  194
_chemical_formula_structural  Be3Ru
_chemical_formula_sum  Be6Ru2
_cell_volume  75.1682076854878
_cell_formula_units_Z  2
loop_
  _symmetry_equiv_pos_site_id
 _symmetry_equiv_pos_as_xyz
 1  'x, y, z'
loop_
 _atom_site_type_symbol
 _atom_site_label
 _atom_site_symmetry_multiplicity
 _atom_site_fract_x
 _atom_site_fract_y
 _atom_site_fract_z
 _atom_site_fract_occupancy
 Be  Be1  1  0.16143  0.32285  0.25000  1
 Be  Be2  1  0.67715  0.83857  0.25000  1
 Be  Be3  1  0.16143  0.83857  0.25000  1
 Be  Be4  1  0.83857  0.67715  0.75000  1
 Be  Be5  1  0.32285  0.16143  0.75000  1
 Be  Be6  1  0.83857  0.16143  0.75000  1
 Ru  Ru1  1  0.33333  0.66667  0.75000  1
 Ru  Ru2  1  0.66667  0.33333  0.25000  1
