CIF file written using JARVIS-Tools package.
data_TiBr4
_symmetry_space_group_name_H-M  'P2_1/c'
_cell_length_a       10.1513
_cell_length_b       6.79216
_cell_length_c       10.1493
_cell_angle_alpha    90
_cell_angle_beta     101.817
_cell_angle_gamma    90

_symmetry_Int_Tables_number  14
_chemical_formula_structural  TiBr4
_chemical_formula_sum  Ti4Br6
_cell_volume  684.953405336947
_cell_formula_units_Z  4
loop_
  _symmetry_equiv_pos_site_id
 _symmetry_equiv_pos_as_xyz
 1  'x, y, z'
loop_
 _atom_site_type_symbol
 _atom_site_label
 _atom_site_symmetry_multiplicity
 _atom_site_fract_x
 _atom_site_fract_y
 _atom_site_fract_z
 _atom_site_fract_occupancy
 Br  Br1  1  0.69619  0.58568  0.57233  1
 Br  Br2  1  0.81048  0.42234  0.93457  1
 Br  Br3  1  0.68952  0.92234  0.06543  1
 Br  Br4  1  0.18952  0.57766  0.06543  1
 Br  Br5  1  0.31048  0.07766  0.93457  1
 Br  Br6  1  0.57242  0.09685  0.68786  1
 Br  Br7  1  0.55127  0.41745  0.19044  1
 Br  Br8  1  0.92758  0.59685  0.31214  1
 Br  Br9  1  0.07242  0.40315  0.68786  1
 Br  Br10  1  0.94873  0.91745  0.80956  1
 Br  Br11  1  0.80381  0.08568  0.42767  1
 Br  Br12  1  0.30381  0.41432  0.42767  1
 Br  Br13  1  0.19619  0.91432  0.57233  1
 Br  Br14  1  0.44873  0.58255  0.80956  1
 Br  Br15  1  0.05127  0.08255  0.19044  1
 Br  Br16  1  0.42758  0.90315  0.31214  1
 Ti  Ti1  1  0.13065  0.07895  0.75019  1
 Ti  Ti2  1  0.36935  0.57895  0.24981  1
 Ti  Ti3  1  0.86935  0.92105  0.24981  1
 Ti  Ti4  1  0.63065  0.42105  0.75019  1
