CIF file written using JARVIS-Tools package.
data_Li3Cu2SbO6
_symmetry_space_group_name_H-M  'C2/c'
_cell_length_a       5.15123
_cell_length_b       5.15123
_cell_length_c       9.86636
_cell_angle_alpha    88.2713
_cell_angle_beta     91.7287
_cell_angle_gamma    65.4978

_symmetry_Int_Tables_number  15
_chemical_formula_structural  Li3Cu2SbO6
_chemical_formula_sum  Li6Cu4Sb2O2
_cell_volume  237.8580437029354
_cell_formula_units_Z  2
loop_
  _symmetry_equiv_pos_site_id
 _symmetry_equiv_pos_as_xyz
 1  'x, y, z'
loop_
 _atom_site_type_symbol
 _atom_site_label
 _atom_site_symmetry_multiplicity
 _atom_site_fract_x
 _atom_site_fract_y
 _atom_site_fract_z
 _atom_site_fract_occupancy
 Cu  Cu1  1  -0.00000  0.50000  0.00000  1
 Cu  Cu2  1  0.58448  0.58448  0.75000  1
 Cu  Cu3  1  0.41552  0.41552  0.25000  1
 Cu  Cu4  1  0.50000  0.00000  0.50000  1
 Li  Li1  1  0.31529  0.85008  0.99879  1
 Li  Li2  1  0.14992  0.68471  0.49879  1
 Li  Li3  1  0.90343  0.90343  0.75000  1
 Li  Li4  1  0.09657  0.09657  0.25000  1
 Li  Li5  1  0.85008  0.31529  0.50121  1
 Li  Li6  1  0.68471  0.14992  0.00121  1
 O  O1  1  0.01522  0.79622  0.11307  1
 O  O2  1  0.53508  0.29651  0.63099  1
 O  O3  1  0.20378  0.98478  0.61307  1
 O  O4  1  0.79622  0.01522  0.38693  1
 O  O5  1  0.46492  0.70349  0.36901  1
 O  O6  1  0.98478  0.20378  0.88693  1
 O  O7  1  0.43107  0.08266  0.14808  1
 O  O8  1  0.29651  0.53508  0.86901  1
 O  O9  1  0.56893  0.91734  0.85192  1
 O  O10  1  0.70349  0.46492  0.13099  1
 O  O11  1  0.91734  0.56893  0.64808  1
 O  O12  1  0.08266  0.43107  0.35192  1
 Sb  Sb1  1  0.75512  0.75512  0.25000  1
 Sb  Sb2  1  0.24488  0.24488  0.75000  1
