CIF file written using JARVIS-Tools package.
data_Na2CrO4
_symmetry_space_group_name_H-M  'Cmcm'
_cell_length_a       5.46257
_cell_length_b       5.46257
_cell_length_c       7.13821
_cell_angle_alpha    90
_cell_angle_beta     90
_cell_angle_gamma    114.918

_symmetry_Int_Tables_number  63
_chemical_formula_structural  Na2CrO4
_chemical_formula_sum  Na4Cr2O8
_cell_volume  193.1728853668256
_cell_formula_units_Z  2
loop_
  _symmetry_equiv_pos_site_id
 _symmetry_equiv_pos_as_xyz
 1  'x, y, z'
loop_
 _atom_site_type_symbol
 _atom_site_label
 _atom_site_symmetry_multiplicity
 _atom_site_fract_x
 _atom_site_fract_y
 _atom_site_fract_z
 _atom_site_fract_occupancy
 Cr  Cr1  1  0.85505  0.14495  0.75000  1
 Cr  Cr2  1  0.14495  0.85505  0.25000  1
 Na  Na1  1  0.18692  0.81308  0.75000  1
 Na  Na2  1  0.81308  0.18692  0.25000  1
 Na  Na3  1  0.50000  0.50000  0.50000  1
 Na  Na4  1  0.50000  0.50000  0.00000  1
 O  O1  1  0.24932  0.75068  0.06189  1
 O  O2  1  0.75068  0.24932  0.56189  1
 O  O3  1  0.75068  0.24932  0.93811  1
 O  O4  1  0.24932  0.75068  0.43811  1
 O  O5  1  0.19195  0.26987  0.75000  1
 O  O6  1  0.80805  0.73013  0.25000  1
 O  O7  1  0.73013  0.80805  0.75000  1
 O  O8  1  0.26987  0.19195  0.25000  1
