CIF file written using JARVIS-Tools package.
data_MoW3Se4S4
_symmetry_space_group_name_H-M  'P3m1'
_cell_length_a       3.25695
_cell_length_b       3.25673
_cell_length_c       33.1109
_cell_angle_alpha    90.022
_cell_angle_beta     90
_cell_angle_gamma    120.002

_symmetry_Int_Tables_number  156
_chemical_formula_structural  MoW3Se4S4
_chemical_formula_sum  MoW3Se4S4
_cell_volume  304.14739257056664
_cell_formula_units_Z  1
loop_
  _symmetry_equiv_pos_site_id
 _symmetry_equiv_pos_as_xyz
 1  'x, y, z'
loop_
 _atom_site_type_symbol
 _atom_site_label
 _atom_site_symmetry_multiplicity
 _atom_site_fract_x
 _atom_site_fract_y
 _atom_site_fract_z
 _atom_site_fract_occupancy
 Mo  Mo1  1  0.33324  0.66648  0.08715  1
 S  S1  1  0.33313  0.66627  0.32902  1
 S  S2  1  0.66665  0.33329  0.42269  1
 S  S3  1  0.66712  0.33423  0.51652  1
 S  S4  1  0.33310  0.66621  0.23518  1
 Se  Se1  1  0.33349  0.66699  0.71561  1
 Se  Se2  1  0.66650  0.33300  0.03590  1
 Se  Se3  1  0.66673  0.33345  0.13845  1
 Se  Se4  1  0.33328  0.66655  0.61246  1
 W  W1  1  0.33354  0.66708  0.46960  1
 W  W2  1  0.66645  0.33290  0.28211  1
 W  W3  1  0.66677  0.33355  0.66407  1
