CIF file written using JARVIS-Tools package.
data_PH4I
_symmetry_space_group_name_H-M  'P4/nmm'
_cell_length_a       6.29113
_cell_length_b       6.29113
_cell_length_c       4.60825
_cell_angle_alpha    90
_cell_angle_beta     90
_cell_angle_gamma    90

_symmetry_Int_Tables_number  129
_chemical_formula_structural  PH4I
_chemical_formula_sum  P2H8I2
_cell_volume  182.38669705229782
_cell_formula_units_Z  2
loop_
  _symmetry_equiv_pos_site_id
 _symmetry_equiv_pos_as_xyz
 1  'x, y, z'
loop_
 _atom_site_type_symbol
 _atom_site_label
 _atom_site_symmetry_multiplicity
 _atom_site_fract_x
 _atom_site_fract_y
 _atom_site_fract_z
 _atom_site_fract_occupancy
 H  H1  1  0.00000  0.18259  0.18022  1
 H  H2  1  0.68259  0.50000  0.18022  1
 H  H3  1  0.31741  0.50000  0.18022  1
 H  H4  1  0.00000  0.81741  0.18022  1
 H  H5  1  0.50000  0.68259  0.81978  1
 H  H6  1  0.50000  0.31741  0.81978  1
 H  H7  1  0.18259  0.00000  0.81978  1
 H  H8  1  0.81741  0.00000  0.81978  1
 I  I1  1  0.50000  0.00000  0.39449  1
 I  I2  1  0.00000  0.50000  0.60551  1
 P  P1  1  0.00000  0.00000  0.00000  1
 P  P2  1  0.50000  0.50000  0.00000  1
