CIF file written using JARVIS-Tools package.
data_Na2CO3
_symmetry_space_group_name_H-M  'P6_3/mmc'
_cell_length_a       5.26481
_cell_length_b       5.26481
_cell_length_c       6.11124
_cell_angle_alpha    90
_cell_angle_beta     90
_cell_angle_gamma    120

_symmetry_Int_Tables_number  194
_chemical_formula_structural  Na2CO3
_chemical_formula_sum  Na4C2O6
_cell_volume  146.69850476731395
_cell_formula_units_Z  2
loop_
  _symmetry_equiv_pos_site_id
 _symmetry_equiv_pos_as_xyz
 1  'x, y, z'
loop_
 _atom_site_type_symbol
 _atom_site_label
 _atom_site_symmetry_multiplicity
 _atom_site_fract_x
 _atom_site_fract_y
 _atom_site_fract_z
 _atom_site_fract_occupancy
 C  C1  1  0.66667  0.33333  0.25000  1
 C  C2  1  0.33333  0.66667  0.75000  1
 Na  Na1  1  0.33333  0.66667  0.25000  1
 Na  Na2  1  0.66667  0.33333  0.75000  1
 Na  Na3  1  0.00000  0.00000  0.50000  1
 Na  Na4  1  0.00000  0.00000  0.00000  1
 O  O1  1  0.38239  0.19120  0.25000  1
 O  O2  1  0.61761  0.80880  0.75000  1
 O  O3  1  0.19120  0.38239  0.75000  1
 O  O4  1  0.80880  0.19120  0.25000  1
 O  O5  1  0.80880  0.61761  0.25000  1
 O  O6  1  0.19120  0.80880  0.75000  1
