CIF file written using JARVIS-Tools package.
data_InMo6Se8
_symmetry_space_group_name_H-M  'R-3'
_cell_length_a       6.88691
_cell_length_b       6.8869
_cell_length_c       6.8869
_cell_angle_alpha    88.811
_cell_angle_beta     88.8109
_cell_angle_gamma    88.811

_symmetry_Int_Tables_number  148
_chemical_formula_structural  InMo6Se8
_chemical_formula_sum  InMo6Se8
_cell_volume  326.43386707922235
_cell_formula_units_Z  1
loop_
  _symmetry_equiv_pos_site_id
 _symmetry_equiv_pos_as_xyz
 1  'x, y, z'
loop_
 _atom_site_type_symbol
 _atom_site_label
 _atom_site_symmetry_multiplicity
 _atom_site_fract_x
 _atom_site_fract_y
 _atom_site_fract_z
 _atom_site_fract_occupancy
 In  In1  1  0.00000  0.00000  0.00000  1
 Mo  Mo1  1  0.43817  0.75903  0.57987  1
 Mo  Mo2  1  0.75903  0.57987  0.43817  1
 Mo  Mo3  1  0.57987  0.43817  0.75903  1
 Mo  Mo4  1  0.56183  0.24097  0.42013  1
 Mo  Mo5  1  0.24097  0.42013  0.56183  1
 Mo  Mo6  1  0.42013  0.56183  0.24097  1
 Se  Se1  1  0.61240  0.88152  0.25464  1
 Se  Se2  1  0.88152  0.25464  0.61240  1
 Se  Se3  1  0.25464  0.61240  0.88152  1
 Se  Se4  1  0.38760  0.11848  0.74536  1
 Se  Se5  1  0.11848  0.74536  0.38760  1
 Se  Se6  1  0.74536  0.38760  0.11848  1
 Se  Se7  1  0.75647  0.75647  0.75647  1
 Se  Se8  1  0.24353  0.24353  0.24353  1
