CIF file written using JARVIS-Tools package.
data_MgV2S4
_symmetry_space_group_name_H-M  'Fd-3m'
_cell_length_a       7.23781
_cell_length_b       7.23781
_cell_length_c       7.23984
_cell_angle_alpha    119.991
_cell_angle_beta     119.991
_cell_angle_gamma    90

_symmetry_Int_Tables_number  227
_chemical_formula_structural  MgV2S4
_chemical_formula_sum  Mg2V4S8
_cell_volume  268.25661850594025
_cell_formula_units_Z  2
loop_
  _symmetry_equiv_pos_site_id
 _symmetry_equiv_pos_as_xyz
 1  'x, y, z'
loop_
 _atom_site_type_symbol
 _atom_site_label
 _atom_site_symmetry_multiplicity
 _atom_site_fract_x
 _atom_site_fract_y
 _atom_site_fract_z
 _atom_site_fract_occupancy
 Mg  Mg1  1  0.37500  0.62500  0.75000  1
 Mg  Mg2  1  0.62500  0.37500  0.25000  1
 S  S1  1  0.76101  0.78280  0.52202  1
 S  S2  1  0.76078  0.23899  0.97798  1
 S  S3  1  0.21720  0.23899  0.97798  1
 S  S4  1  0.23899  0.21720  0.47798  1
 S  S5  1  0.23899  0.76078  0.47798  1
 S  S6  1  0.23922  0.76101  0.02202  1
 S  S7  1  0.76101  0.23922  0.52202  1
 S  S8  1  0.78280  0.76101  0.02202  1
 V  V1  1  -0.00000  -0.00000  0.50000  1
 V  V2  1  -0.00000  0.50000  -0.00000  1
 V  V3  1  0.50000  0.00000  0.50000  1
 V  V4  1  0.00000  0.00000  0.00000  1
