CIF file written using JARVIS-Tools package.
data_TeO2
_symmetry_space_group_name_H-M  'P2_12_12_1'
_cell_length_a       4.31377
_cell_length_b       5.00929
_cell_length_c       8.52629
_cell_angle_alpha    90
_cell_angle_beta     90
_cell_angle_gamma    90

_symmetry_Int_Tables_number  19
_chemical_formula_structural  TeO2
_chemical_formula_sum  Te4O8
_cell_volume  184.24401911173905
_cell_formula_units_Z  4
loop_
  _symmetry_equiv_pos_site_id
 _symmetry_equiv_pos_as_xyz
 1  'x, y, z'
loop_
 _atom_site_type_symbol
 _atom_site_label
 _atom_site_symmetry_multiplicity
 _atom_site_fract_x
 _atom_site_fract_y
 _atom_site_fract_z
 _atom_site_fract_occupancy
 O  O1  1  0.76654  0.14073  0.53874  1
 O  O2  1  0.26654  0.35927  0.46126  1
 O  O3  1  0.23346  0.64073  0.96126  1
 O  O4  1  0.73346  0.85927  0.03874  1
 O  O5  1  0.18515  0.77817  0.28888  1
 O  O6  1  0.68515  0.72183  0.71112  1
 O  O7  1  0.81485  0.27817  0.21112  1
 O  O8  1  0.31485  0.22183  0.78888  1
 Te  Te1  1  0.35003  0.02703  0.60132  1
 Te  Te2  1  0.85003  0.47297  0.39868  1
 Te  Te3  1  0.64997  0.52703  0.89868  1
 Te  Te4  1  0.14997  0.97297  0.10132  1
