CIF file written using JARVIS-Tools package.
data_ZnMo2O5
_symmetry_space_group_name_H-M  'P2_1/m'
_cell_length_a       3.81287
_cell_length_b       6.87159
_cell_length_c       11.4211
_cell_angle_alpha    90.0006
_cell_angle_beta     89.9956
_cell_angle_gamma    90.0082

_symmetry_Int_Tables_number  11
_chemical_formula_structural  ZnMo2O5
_chemical_formula_sum  Zn2Mo4O0
_cell_volume  299.23793351350514
_cell_formula_units_Z  2
loop_
  _symmetry_equiv_pos_site_id
 _symmetry_equiv_pos_as_xyz
 1  'x, y, z'
loop_
 _atom_site_type_symbol
 _atom_site_label
 _atom_site_symmetry_multiplicity
 _atom_site_fract_x
 _atom_site_fract_y
 _atom_site_fract_z
 _atom_site_fract_occupancy
 Mo  Mo1  1  0.25169  0.37114  0.08621  1
 Mo  Mo2  1  0.75178  0.62917  0.91261  1
 Mo  Mo3  1  0.75174  0.62918  0.58622  1
 Mo  Mo4  1  0.25172  0.37115  0.41260  1
 O  O1  1  0.75176  0.61049  0.74941  1
 O  O2  1  0.25171  0.38983  0.24941  1
 O  O3  1  0.75172  0.46565  0.06487  1
 O  O4  1  0.25174  0.53466  0.93395  1
 O  O5  1  0.75174  0.46566  0.43395  1
 O  O6  1  0.25172  0.53466  0.56487  1
 O  O7  1  0.25167  0.13281  0.44228  1
 O  O8  1  0.75180  0.86752  0.55653  1
 O  O9  1  0.75179  0.86751  0.94231  1
 O  O10  1  0.25168  0.13281  0.05650  1
 Zn  Zn1  1  0.75105  0.86339  0.24945  1
 Zn  Zn2  1  0.25290  0.13692  0.74945  1
