CIF file written using JARVIS-Tools package.
data_RbGeCl3
_symmetry_space_group_name_H-M  'P2_1/m'
_cell_length_a       5.77547
_cell_length_b       6.98337
_cell_length_c       7.80359
_cell_angle_alpha    90
_cell_angle_beta     106.41
_cell_angle_gamma    90

_symmetry_Int_Tables_number  11
_chemical_formula_structural  RbGeCl3
_chemical_formula_sum  Rb2Ge2Cl6
_cell_volume  301.9158009348317
_cell_formula_units_Z  2
loop_
  _symmetry_equiv_pos_site_id
 _symmetry_equiv_pos_as_xyz
 1  'x, y, z'
loop_
 _atom_site_type_symbol
 _atom_site_label
 _atom_site_symmetry_multiplicity
 _atom_site_fract_x
 _atom_site_fract_y
 _atom_site_fract_z
 _atom_site_fract_occupancy
 Cl  Cl1  1  0.34054  0.75000  0.86877  1
 Cl  Cl2  1  0.65946  0.25000  0.13123  1
 Cl  Cl3  1  0.18645  0.49991  0.32350  1
 Cl  Cl4  1  0.81355  -0.00009  0.67650  1
 Cl  Cl5  1  0.18645  0.00009  0.32350  1
 Cl  Cl6  1  0.81355  0.50009  0.67650  1
 Ge  Ge1  1  0.93555  0.75000  0.88493  1
 Ge  Ge2  1  0.06445  0.25000  0.11507  1
 Rb  Rb1  1  0.67399  0.75000  0.29634  1
 Rb  Rb2  1  0.32601  0.25000  0.70366  1
