CIF file written using JARVIS-Tools package.
data_TaPO5
_symmetry_space_group_name_H-M  'P4/n'
_cell_length_a       6.49634
_cell_length_b       6.49634
_cell_length_c       4.01038
_cell_angle_alpha    90
_cell_angle_beta     90
_cell_angle_gamma    90

_symmetry_Int_Tables_number  85
_chemical_formula_structural  TaPO5
_chemical_formula_sum  Ta2P2O0
_cell_volume  169.24810891398974
_cell_formula_units_Z  2
loop_
  _symmetry_equiv_pos_site_id
 _symmetry_equiv_pos_as_xyz
 1  'x, y, z'
loop_
 _atom_site_type_symbol
 _atom_site_label
 _atom_site_symmetry_multiplicity
 _atom_site_fract_x
 _atom_site_fract_y
 _atom_site_fract_z
 _atom_site_fract_occupancy
 O  O1  1  0.69410  0.50145  0.28099  1
 O  O2  1  0.00145  0.80590  0.28099  1
 O  O3  1  0.50000  0.00000  0.22464  1
 O  O4  1  0.00000  0.50000  0.77536  1
 O  O5  1  0.99855  0.19410  0.28099  1
 O  O6  1  0.30590  0.49855  0.28099  1
 O  O7  1  0.19410  0.00145  0.71901  1
 O  O8  1  0.50145  0.30590  0.71901  1
 O  O9  1  0.49855  0.69410  0.71901  1
 O  O10  1  0.80590  0.99855  0.71901  1
 P  P1  1  0.50000  0.50000  0.50000  1
 P  P2  1  0.00000  0.00000  0.50000  1
 Ta  Ta1  1  0.00000  0.50000  0.23358  1
 Ta  Ta2  1  0.50000  0.00000  0.76642  1
