CIF file written using JARVIS-Tools package.
data_MgFeGe2O6
_symmetry_space_group_name_H-M  'C2/c'
_cell_length_a       5.17126
_cell_length_b       6.64544
_cell_length_c       6.64544
_cell_angle_alpha    84.7967
_cell_angle_beta     83.3804
_cell_angle_gamma    83.3803

_symmetry_Int_Tables_number  15
_chemical_formula_structural  MgFeGe2O6
_chemical_formula_sum  Mg2Fe2Ge4O2
_cell_volume  224.6431661081289
_cell_formula_units_Z  2
loop_
  _symmetry_equiv_pos_site_id
 _symmetry_equiv_pos_as_xyz
 1  'x, y, z'
loop_
 _atom_site_type_symbol
 _atom_site_label
 _atom_site_symmetry_multiplicity
 _atom_site_fract_x
 _atom_site_fract_y
 _atom_site_fract_z
 _atom_site_fract_occupancy
 Fe  Fe1  1  0.75000  0.91890  0.08110  1
 Fe  Fe2  1  0.25000  0.08110  0.91890  1
 Ge  Ge1  1  0.78761  0.40228  0.20426  1
 Ge  Ge2  1  0.71239  0.79574  0.59772  1
 Ge  Ge3  1  0.21239  0.59772  0.79574  1
 Ge  Ge4  1  0.28761  0.20426  0.40228  1
 Mg  Mg1  1  0.75000  0.27232  0.72768  1
 Mg  Mg2  1  0.25000  0.72768  0.27232  1
 O  O1  1  0.60274  0.29357  0.43408  1
 O  O2  1  0.13614  0.78340  0.97570  1
 O  O3  1  0.39726  0.70643  0.56592  1
 O  O4  1  0.10274  0.43408  0.29357  1
 O  O5  1  0.89726  0.56592  0.70643  1
 O  O6  1  0.86386  0.21660  0.02430  1
 O  O7  1  0.88629  0.86221  0.36550  1
 O  O8  1  0.61371  0.63450  0.13779  1
 O  O9  1  0.11371  0.13779  0.63450  1
 O  O10  1  0.63614  0.97570  0.78340  1
 O  O11  1  0.38629  0.36550  0.86221  1
 O  O12  1  0.36386  0.02430  0.21660  1
