CIF file written using JARVIS-Tools package.
data_CuBr
_symmetry_space_group_name_H-M  'Pa-3'
_cell_length_a       6.924
_cell_length_b       6.924
_cell_length_c       6.924
_cell_angle_alpha    90
_cell_angle_beta     90
_cell_angle_gamma    90

_symmetry_Int_Tables_number  205
_chemical_formula_structural  CuBr
_chemical_formula_sum  Cu8Br8
_cell_volume  331.9481423782103
_cell_formula_units_Z  8
loop_
  _symmetry_equiv_pos_site_id
 _symmetry_equiv_pos_as_xyz
 1  'x, y, z'
loop_
 _atom_site_type_symbol
 _atom_site_label
 _atom_site_symmetry_multiplicity
 _atom_site_fract_x
 _atom_site_fract_y
 _atom_site_fract_z
 _atom_site_fract_occupancy
 Br  Br1  1  0.15803  0.15803  0.15803  1
 Br  Br2  1  0.34197  0.84197  0.65803  1
 Br  Br3  1  0.65803  0.34197  0.84197  1
 Br  Br4  1  0.84197  0.65803  0.34197  1
 Br  Br5  1  0.84197  0.84197  0.84197  1
 Br  Br6  1  0.65803  0.15803  0.34197  1
 Br  Br7  1  0.34197  0.65803  0.15803  1
 Br  Br8  1  0.15803  0.34197  0.65803  1
 Cu  Cu1  1  0.61630  0.61630  0.61630  1
 Cu  Cu2  1  0.88370  0.38370  0.11630  1
 Cu  Cu3  1  0.11630  0.88370  0.38370  1
 Cu  Cu4  1  0.38370  0.11630  0.88370  1
 Cu  Cu5  1  0.38370  0.38370  0.38370  1
 Cu  Cu6  1  0.11630  0.61630  0.88370  1
 Cu  Cu7  1  0.88370  0.11630  0.61630  1
 Cu  Cu8  1  0.61630  0.88370  0.11630  1
