CIF file written using JARVIS-Tools package.
data_AgAsO3
_symmetry_space_group_name_H-M  'C2/c'
_cell_length_a       7.5843
_cell_length_b       7.5843
_cell_length_c       5.19756
_cell_angle_alpha    81.3755
_cell_angle_beta     98.6245
_cell_angle_gamma    92.7525

_symmetry_Int_Tables_number  15
_chemical_formula_structural  AgAsO3
_chemical_formula_sum  Ag4As4O2
_cell_volume  292.14945603627854
_cell_formula_units_Z  4
loop_
  _symmetry_equiv_pos_site_id
 _symmetry_equiv_pos_as_xyz
 1  'x, y, z'
loop_
 _atom_site_type_symbol
 _atom_site_label
 _atom_site_symmetry_multiplicity
 _atom_site_fract_x
 _atom_site_fract_y
 _atom_site_fract_z
 _atom_site_fract_occupancy
 Ag  Ag1  1  0.77605  0.77605  0.75000  1
 Ag  Ag2  1  0.39980  0.39980  0.75000  1
 Ag  Ag3  1  0.60020  0.60020  0.25000  1
 Ag  Ag4  1  0.22395  0.22395  0.25000  1
 As  As1  1  0.30021  0.87901  0.75688  1
 As  As2  1  0.12099  0.69979  0.25688  1
 As  As3  1  0.87901  0.30021  0.74312  1
 As  As4  1  0.69979  0.12099  0.24312  1
 O  O1  1  0.10653  0.80888  0.53913  1
 O  O2  1  0.80888  0.10653  0.96087  1
 O  O3  1  0.45204  0.71721  0.82409  1
 O  O4  1  0.09029  0.35848  0.85374  1
 O  O5  1  0.19112  0.89347  0.03913  1
 O  O6  1  0.90971  0.64152  0.14626  1
 O  O7  1  0.35848  0.09029  0.64626  1
 O  O8  1  0.71721  0.45204  0.67591  1
 O  O9  1  0.28279  0.54796  0.32409  1
 O  O10  1  0.54796  0.28279  0.17591  1
 O  O11  1  0.64152  0.90971  0.35374  1
 O  O12  1  0.89347  0.19112  0.46087  1
