CIF file written using JARVIS-Tools package.
data_ZnH2O2
_symmetry_space_group_name_H-M  'P2_12_12_1'
_cell_length_a       4.82562
_cell_length_b       5.10371
_cell_length_c       8.58142
_cell_angle_alpha    90
_cell_angle_beta     90
_cell_angle_gamma    90

_symmetry_Int_Tables_number  19
_chemical_formula_structural  ZnH2O2
_chemical_formula_sum  Zn4H8O8
_cell_volume  211.34778215229693
_cell_formula_units_Z  4
loop_
  _symmetry_equiv_pos_site_id
 _symmetry_equiv_pos_as_xyz
 1  'x, y, z'
loop_
 _atom_site_type_symbol
 _atom_site_label
 _atom_site_symmetry_multiplicity
 _atom_site_fract_x
 _atom_site_fract_y
 _atom_site_fract_z
 _atom_site_fract_occupancy
 H  H1  1  0.24461  0.67129  0.34724  1
 H  H2  1  0.96100  0.36029  0.33993  1
 H  H3  1  0.03900  0.86029  0.16007  1
 H  H4  1  0.53900  0.63971  0.83993  1
 H  H5  1  0.46100  0.13971  0.66007  1
 H  H6  1  0.25539  0.32871  0.84724  1
 H  H7  1  0.75539  0.17129  0.15276  1
 H  H8  1  0.74461  0.82871  0.65276  1
 O  O1  1  0.38708  0.61464  0.91886  1
 O  O2  1  0.81852  0.68826  0.72348  1
 O  O3  1  0.18148  0.18826  0.77652  1
 O  O4  1  0.31852  0.81174  0.27652  1
 O  O5  1  0.68148  0.31174  0.22348  1
 O  O6  1  0.11292  0.38536  0.41886  1
 O  O7  1  0.61292  0.11464  0.58114  1
 O  O8  1  0.88708  0.88536  0.08114  1
 Zn  Zn1  1  0.92657  0.35760  0.62367  1
 Zn  Zn2  1  0.07343  0.85760  0.87633  1
 Zn  Zn3  1  0.42657  0.14240  0.37633  1
 Zn  Zn4  1  0.57343  0.64240  0.12367  1
