CIF file written using JARVIS-Tools package.
data_SrLuCuS3
_symmetry_space_group_name_H-M  'Cmcm'
_cell_length_a       3.89256
_cell_length_b       6.75619
_cell_length_c       9.97082
_cell_angle_alpha    90
_cell_angle_beta     90
_cell_angle_gamma    106.743

_symmetry_Int_Tables_number  63
_chemical_formula_structural  SrLuCuS3
_chemical_formula_sum  Sr2Lu2Cu2S6
_cell_volume  251.10544937676298
_cell_formula_units_Z  2
loop_
  _symmetry_equiv_pos_site_id
 _symmetry_equiv_pos_as_xyz
 1  'x, y, z'
loop_
 _atom_site_type_symbol
 _atom_site_label
 _atom_site_symmetry_multiplicity
 _atom_site_fract_x
 _atom_site_fract_y
 _atom_site_fract_z
 _atom_site_fract_occupancy
 Cu  Cu1  1  0.47071  0.94142  0.25000  1
 Cu  Cu2  1  0.52929  0.05858  0.75000  1
 Lu  Lu1  1  0.00000  0.00000  0.00000  1
 Lu  Lu2  1  0.00000  0.00000  0.50000  1
 S  S1  1  0.92441  0.84883  0.75000  1
 S  S2  1  0.07559  0.15117  0.25000  1
 S  S3  1  0.36367  0.72734  0.06215  1
 S  S4  1  0.36367  0.72734  0.43785  1
 S  S5  1  0.63633  0.27266  0.56215  1
 S  S6  1  0.63633  0.27266  0.93785  1
 Sr  Sr1  1  0.25165  0.50330  0.75000  1
 Sr  Sr2  1  0.74835  0.49670  0.25000  1
