CIF file written using JARVIS-Tools package.
data_MgMo2O4
_symmetry_space_group_name_H-M  'Imma'
_cell_length_a       5.93168
_cell_length_b       5.93169
_cell_length_c       5.37574
_cell_angle_alpha    63.0548
_cell_angle_beta     63.0548
_cell_angle_gamma    75.7118

_symmetry_Int_Tables_number  74
_chemical_formula_structural  MgMo2O4
_chemical_formula_sum  Mg2Mo4O8
_cell_volume  150.10246127093762
_cell_formula_units_Z  2
loop_
  _symmetry_equiv_pos_site_id
 _symmetry_equiv_pos_as_xyz
 1  'x, y, z'
loop_
 _atom_site_type_symbol
 _atom_site_label
 _atom_site_symmetry_multiplicity
 _atom_site_fract_x
 _atom_site_fract_y
 _atom_site_fract_z
 _atom_site_fract_occupancy
 Mg  Mg1  1  0.12500  0.62500  0.62500  1
 Mg  Mg2  1  0.62500  0.12500  0.62500  1
 Mo  Mo1  1  0.10092  0.10092  -0.10092  1
 Mo  Mo2  1  0.14908  0.14908  0.35092  1
 Mo  Mo3  1  0.62500  0.62500  0.12500  1
 Mo  Mo4  1  0.62500  0.62500  0.62500  1
 O  O1  1  0.34695  0.34695  0.41607  1
 O  O2  1  0.41265  0.85402  0.36667  1
 O  O3  1  0.34695  0.34695  0.89004  1
 O  O4  1  0.85402  0.41265  0.36667  1
 O  O5  1  0.39598  0.83735  0.88333  1
 O  O6  1  0.83735  0.39598  0.88333  1
 O  O7  1  0.90305  0.90305  0.35996  1
 O  O8  1  0.90305  0.90305  0.83393  1
