CIF file written using JARVIS-Tools package.
data_NpSi2
_symmetry_space_group_name_H-M  'I4_1/amd'
_cell_length_a       3.94855
_cell_length_b       3.94855
_cell_length_c       7.69704
_cell_angle_alpha    104.862
_cell_angle_beta     104.862
_cell_angle_gamma    89.9999

_symmetry_Int_Tables_number  141
_chemical_formula_structural  NpSi2
_chemical_formula_sum  Np2Si4
_cell_volume  111.83113538531725
_cell_formula_units_Z  2
loop_
  _symmetry_equiv_pos_site_id
 _symmetry_equiv_pos_as_xyz
 1  'x, y, z'
loop_
 _atom_site_type_symbol
 _atom_site_label
 _atom_site_symmetry_multiplicity
 _atom_site_fract_x
 _atom_site_fract_y
 _atom_site_fract_z
 _atom_site_fract_occupancy
 Np  Np1  1  0.87500  0.62500  0.25000  1
 Np  Np2  1  0.12500  0.37500  0.75000  1
 Si  Si1  1  0.70702  0.95702  0.91404  1
 Si  Si2  1  0.45702  0.20702  0.41404  1
 Si  Si3  1  0.54298  0.79298  0.58596  1
 Si  Si4  1  0.29298  0.04298  0.08596  1
