CIF file written using JARVIS-Tools package.
data_CeNiC2
_symmetry_space_group_name_H-M  'Amm2'
_cell_length_a       3.78499
_cell_length_b       3.785
_cell_length_c       3.79261
_cell_angle_alpha    90
_cell_angle_beta     90
_cell_angle_gamma    106.491

_symmetry_Int_Tables_number  38
_chemical_formula_structural  CeNiC2
_chemical_formula_sum  CeNiC2
_cell_volume  52.09868536917419
_cell_formula_units_Z  1
loop_
  _symmetry_equiv_pos_site_id
 _symmetry_equiv_pos_as_xyz
 1  'x, y, z'
loop_
 _atom_site_type_symbol
 _atom_site_label
 _atom_site_symmetry_multiplicity
 _atom_site_fract_x
 _atom_site_fract_y
 _atom_site_fract_z
 _atom_site_fract_occupancy
 C  C1  1  0.44214  0.86288  0.50000  1
 C  C2  1  0.13712  0.55786  0.50000  1
 Ce  Ce1  1  0.99252  0.00748  0.00000  1
 Ni  Ni1  1  0.59981  0.40019  0.50000  1
