CIF file written using JARVIS-Tools package.
data_Ni3N
_symmetry_space_group_name_H-M  'P6_322'
_cell_length_a       4.62073
_cell_length_b       4.62073
_cell_length_c       4.30556
_cell_angle_alpha    90
_cell_angle_beta     90
_cell_angle_gamma    120

_symmetry_Int_Tables_number  182
_chemical_formula_structural  Ni3N
_chemical_formula_sum  Ni6N2
_cell_volume  79.6125591879268
_cell_formula_units_Z  2
loop_
  _symmetry_equiv_pos_site_id
 _symmetry_equiv_pos_as_xyz
 1  'x, y, z'
loop_
 _atom_site_type_symbol
 _atom_site_label
 _atom_site_symmetry_multiplicity
 _atom_site_fract_x
 _atom_site_fract_y
 _atom_site_fract_z
 _atom_site_fract_occupancy
 N  N1  1  0.66667  0.33333  0.75000  1
 N  N2  1  0.33333  0.66667  0.25000  1
 Ni  Ni1  1  0.32954  0.32954  0.50000  1
 Ni  Ni2  1  0.67046  0.67046  0.00000  1
 Ni  Ni3  1  0.32954  -0.00000  0.00000  1
 Ni  Ni4  1  0.00000  0.67046  0.50000  1
 Ni  Ni5  1  0.67046  0.00000  0.50000  1
 Ni  Ni6  1  -0.00000  0.32954  0.00000  1
