CIF file written using JARVIS-Tools package.
data_Na3VH6O7
_symmetry_space_group_name_H-M  'R3'
_cell_length_a       5.53831
_cell_length_b       5.53831
_cell_length_c       5.53831
_cell_angle_alpha    99.8193
_cell_angle_beta     99.8193
_cell_angle_gamma    99.8192

_symmetry_Int_Tables_number  146
_chemical_formula_structural  Na3VH6O7
_chemical_formula_sum  Na3VH6O7
_cell_volume  161.41165085032443
_cell_formula_units_Z  1
loop_
  _symmetry_equiv_pos_site_id
 _symmetry_equiv_pos_as_xyz
 1  'x, y, z'
loop_
 _atom_site_type_symbol
 _atom_site_label
 _atom_site_symmetry_multiplicity
 _atom_site_fract_x
 _atom_site_fract_y
 _atom_site_fract_z
 _atom_site_fract_occupancy
 H  H1  1  0.88067  0.51155  0.75274  1
 H  H2  1  0.75274  0.88067  0.51155  1
 H  H3  1  0.51155  0.75274  0.88067  1
 H  H4  1  0.25429  0.60883  0.92276  1
 H  H5  1  0.60883  0.92276  0.25429  1
 H  H6  1  0.92276  0.25429  0.60883  1
 Na  Na1  1  0.62415  0.42962  0.17960  1
 Na  Na2  1  0.17960  0.62415  0.42962  1
 Na  Na3  1  0.42962  0.17960  0.62415  1
 O  O1  1  0.83741  0.39645  0.58271  1
 O  O2  1  0.39645  0.58271  0.83741  1
 O  O3  1  0.21811  0.21811  0.21811  1
 O  O4  1  0.99838  0.69370  0.04631  1
 O  O5  1  0.69370  0.04631  0.99838  1
 O  O6  1  0.04631  0.99838  0.69370  1
 O  O7  1  0.58271  0.83741  0.39645  1
 V  V1  1  0.99765  0.99765  0.99765  1
