CIF file written using JARVIS-Tools package.
data_Ga2PbO4
_symmetry_space_group_name_H-M  'Ama2'
_cell_length_a       5.31143
_cell_length_b       5.41741
_cell_length_c       8.63273
_cell_angle_alpha    90
_cell_angle_beta     90
_cell_angle_gamma    119.355

_symmetry_Int_Tables_number  40
_chemical_formula_structural  Ga2PbO4
_chemical_formula_sum  Ga4Pb2O8
_cell_volume  216.50506848487885
_cell_formula_units_Z  2
loop_
  _symmetry_equiv_pos_site_id
 _symmetry_equiv_pos_as_xyz
 1  'x, y, z'
loop_
 _atom_site_type_symbol
 _atom_site_label
 _atom_site_symmetry_multiplicity
 _atom_site_fract_x
 _atom_site_fract_y
 _atom_site_fract_z
 _atom_site_fract_occupancy
 Ga  Ga1  1  0.70994  0.34664  0.44781  1
 Ga  Ga2  1  0.36330  0.65336  0.55219  1
 Ga  Ga3  1  0.70994  0.34664  0.05219  1
 Ga  Ga4  1  0.36330  0.65336  0.94781  1
 O  O1  1  0.87368  0.38696  0.25000  1
 O  O2  1  0.48672  0.61304  0.75000  1
 O  O3  1  0.67982  -0.00000  0.50000  1
 O  O4  1  0.67982  -0.00000  0.00000  1
 O  O5  1  0.36933  0.36180  0.43961  1
 O  O6  1  0.00752  0.63820  0.56039  1
 O  O7  1  0.00752  0.63820  0.93961  1
 O  O8  1  0.36933  0.36180  0.06039  1
 Pb  Pb1  1  0.02230  0.04821  0.25000  1
 Pb  Pb2  1  0.97409  0.95179  0.75000  1
