CIF file written using JARVIS-Tools package.
data_Na2ScPCO7
_symmetry_space_group_name_H-M  'P2_1/m'
_cell_length_a       5.21713
_cell_length_b       6.70658
_cell_length_c       9.05685
_cell_angle_alpha    90
_cell_angle_beta     90.2985
_cell_angle_gamma    90

_symmetry_Int_Tables_number  11
_chemical_formula_structural  Na2ScPCO7
_chemical_formula_sum  Na4Sc2P2C2O4
_cell_volume  316.88733143522273
_cell_formula_units_Z  2
loop_
  _symmetry_equiv_pos_site_id
 _symmetry_equiv_pos_as_xyz
 1  'x, y, z'
loop_
 _atom_site_type_symbol
 _atom_site_label
 _atom_site_symmetry_multiplicity
 _atom_site_fract_x
 _atom_site_fract_y
 _atom_site_fract_z
 _atom_site_fract_occupancy
 C  C1  1  0.72375  0.75000  0.07747  1
 C  C2  1  0.27625  0.25000  0.92253  1
 Na  Na1  1  0.23656  0.49572  0.22074  1
 Na  Na2  1  0.23656  0.00428  0.22074  1
 Na  Na3  1  0.76344  0.50428  0.77926  1
 Na  Na4  1  0.76344  0.99572  0.77926  1
 O  O1  1  0.31674  0.25000  0.05925  1
 O  O2  1  0.04757  0.25000  0.86191  1
 O  O3  1  0.53585  0.75000  0.17533  1
 O  O4  1  0.79739  0.06140  0.34191  1
 O  O5  1  0.79739  0.43860  0.34191  1
 O  O6  1  0.95243  0.75000  0.13809  1
 O  O7  1  0.40814  0.25000  0.43581  1
 O  O8  1  0.59186  0.75000  0.56419  1
 O  O9  1  0.20261  0.93860  0.65809  1
 O  O10  1  0.20261  0.56140  0.65809  1
 O  O11  1  0.17910  0.75000  0.41681  1
 O  O12  1  0.46415  0.25000  0.82467  1
 O  O13  1  0.82090  0.25000  0.58319  1
 O  O14  1  0.68326  0.75000  0.94075  1
 P  P1  1  0.29269  0.75000  0.57657  1
 P  P2  1  0.70731  0.25000  0.42343  1
 Sc  Sc1  1  0.21297  0.25000  0.63932  1
 Sc  Sc2  1  0.78703  0.75000  0.36068  1
