CIF file written using JARVIS-Tools package.
data_ThCl4
_symmetry_space_group_name_H-M  'I4_1/amd'
_cell_length_a       7.10289
_cell_length_b       7.10287
_cell_length_c       7.10289
_cell_angle_alpha    106.029
_cell_angle_beta     106.027
_cell_angle_gamma    116.602

_symmetry_Int_Tables_number  141
_chemical_formula_structural  ThCl4
_chemical_formula_sum  Th2Cl8
_cell_volume  272.61273415198406
_cell_formula_units_Z  2
loop_
  _symmetry_equiv_pos_site_id
 _symmetry_equiv_pos_as_xyz
 1  'x, y, z'
loop_
 _atom_site_type_symbol
 _atom_site_label
 _atom_site_symmetry_multiplicity
 _atom_site_fract_x
 _atom_site_fract_y
 _atom_site_fract_z
 _atom_site_fract_occupancy
 Cl  Cl1  1  0.20294  0.26576  0.56281  1
 Cl  Cl2  1  0.64013  0.20294  0.43719  1
 Cl  Cl3  1  0.35987  0.79706  0.56281  1
 Cl  Cl4  1  0.79706  0.73424  0.43719  1
 Cl  Cl5  1  0.79706  0.35987  0.06281  1
 Cl  Cl6  1  0.73425  0.79706  0.93719  1
 Cl  Cl7  1  0.20294  0.64013  0.93719  1
 Cl  Cl8  1  0.26575  0.20294  0.06281  1
 Th  Th1  1  0.87500  0.12500  0.75000  1
 Th  Th2  1  0.12500  0.87500  0.25000  1
