CIF file written using JARVIS-Tools package.
data_BiF3
_symmetry_space_group_name_H-M  'Pnma'
_cell_length_a       4.45927
_cell_length_b       6.77364
_cell_length_c       7.20701
_cell_angle_alpha    90
_cell_angle_beta     90
_cell_angle_gamma    90

_symmetry_Int_Tables_number  62
_chemical_formula_structural  BiF3
_chemical_formula_sum  Bi4F2
_cell_volume  217.6910264519158
_cell_formula_units_Z  4
loop_
  _symmetry_equiv_pos_site_id
 _symmetry_equiv_pos_as_xyz
 1  'x, y, z'
loop_
 _atom_site_type_symbol
 _atom_site_label
 _atom_site_symmetry_multiplicity
 _atom_site_fract_x
 _atom_site_fract_y
 _atom_site_fract_z
 _atom_site_fract_occupancy
 Bi  Bi1  1  0.93581  0.63079  0.75000  1
 Bi  Bi2  1  0.43581  0.86921  0.25000  1
 Bi  Bi3  1  0.56419  0.13079  0.75000  1
 Bi  Bi4  1  0.06419  0.36921  0.25000  1
 F  F1  1  0.39429  0.16451  0.43377  1
 F  F2  1  0.89429  0.33549  0.56623  1
 F  F3  1  0.10571  0.66451  0.06623  1
 F  F4  1  0.60571  0.83549  0.93377  1
 F  F5  1  0.57438  0.51712  0.25000  1
 F  F6  1  0.07438  0.98288  0.75000  1
 F  F7  1  0.92562  0.01712  0.25000  1
 F  F8  1  0.42562  0.48288  0.75000  1
 F  F9  1  0.39429  0.16451  0.06623  1
 F  F10  1  0.89429  0.33549  0.93377  1
 F  F11  1  0.10571  0.66451  0.43377  1
 F  F12  1  0.60571  0.83549  0.56623  1
