CIF file written using JARVIS-Tools package.
data_YbTi2CdO6F
_symmetry_space_group_name_H-M  'Imma'
_cell_length_a       7.18177
_cell_length_b       7.24932
_cell_length_c       7.18177
_cell_angle_alpha    59.6883
_cell_angle_beta     59.574
_cell_angle_gamma    59.6883

_symmetry_Int_Tables_number  74
_chemical_formula_structural  YbTi2CdO6F
_chemical_formula_sum  Yb2Ti4Cd2O2F2
_cell_volume  262.28845367839784
_cell_formula_units_Z  2
loop_
  _symmetry_equiv_pos_site_id
 _symmetry_equiv_pos_as_xyz
 1  'x, y, z'
loop_
 _atom_site_type_symbol
 _atom_site_label
 _atom_site_symmetry_multiplicity
 _atom_site_fract_x
 _atom_site_fract_y
 _atom_site_fract_z
 _atom_site_fract_occupancy
 Cd  Cd1  1  -0.00000  -0.00000  0.50000  1
 Cd  Cd2  1  0.50000  -0.00000  0.00000  1
 F  F1  1  0.88160  0.86840  0.88160  1
 F  F2  1  0.11840  0.13160  0.11840  1
 O  O1  1  0.57992  0.57409  0.17253  1
 O  O2  1  0.17116  0.57884  0.17116  1
 O  O3  1  0.17253  0.17345  0.57992  1
 O  O4  1  0.17253  0.57409  0.57992  1
 O  O5  1  0.58040  0.16960  0.58040  1
 O  O6  1  0.57992  0.17345  0.17253  1
 O  O7  1  0.41960  0.83040  0.41960  1
 O  O8  1  0.42008  0.42591  0.82747  1
 O  O9  1  0.42008  0.82655  0.82747  1
 O  O10  1  0.82884  0.42116  0.82884  1
 O  O11  1  0.82747  0.82655  0.42008  1
 O  O12  1  0.82747  0.42591  0.42008  1
 Ti  Ti1  1  0.50000  0.50000  0.50000  1
 Ti  Ti2  1  0.50000  -0.00000  0.50000  1
 Ti  Ti3  1  0.50000  0.50000  -0.00000  1
 Ti  Ti4  1  0.00000  0.50000  0.50000  1
 Yb  Yb1  1  0.00000  0.50000  -0.00000  1
 Yb  Yb2  1  0.00000  0.00000  0.00000  1
