CIF file written using JARVIS-Tools package.
data_HoZn2
_symmetry_space_group_name_H-M  'Imma'
_cell_length_a       4.44229
_cell_length_b       5.61636
_cell_length_c       5.61636
_cell_angle_alpha    77.1716
_cell_angle_beta     66.7043
_cell_angle_gamma    66.7042

_symmetry_Int_Tables_number  74
_chemical_formula_structural  HoZn2
_chemical_formula_sum  Ho2Zn4
_cell_volume  117.85091931323079
_cell_formula_units_Z  2
loop_
  _symmetry_equiv_pos_site_id
 _symmetry_equiv_pos_as_xyz
 1  'x, y, z'
loop_
 _atom_site_type_symbol
 _atom_site_label
 _atom_site_symmetry_multiplicity
 _atom_site_fract_x
 _atom_site_fract_y
 _atom_site_fract_z
 _atom_site_fract_occupancy
 Ho  Ho1  1  0.52488  0.72512  0.22512  1
 Ho  Ho2  1  0.47512  0.27488  0.77488  1
 Zn  Zn1  1  0.83396  0.70331  0.62877  1
 Zn  Zn2  1  0.16604  0.29669  0.37123  1
 Zn  Zn3  1  0.83396  0.12877  0.20331  1
 Zn  Zn4  1  0.16604  0.87123  0.79669  1
