CIF file written using JARVIS-Tools package.
data_Mo3O8
_symmetry_space_group_name_H-M  'C2/m'
_cell_length_a       6.13147
_cell_length_b       6.13147
_cell_length_c       9.95339
_cell_angle_alpha    68.2792
_cell_angle_beta     111.721
_cell_angle_gamma    123.364

_symmetry_Int_Tables_number  12
_chemical_formula_structural  Mo3O8
_chemical_formula_sum  Mo6O6
_cell_volume  283.56937789750856
_cell_formula_units_Z  2
loop_
  _symmetry_equiv_pos_site_id
 _symmetry_equiv_pos_as_xyz
 1  'x, y, z'
loop_
 _atom_site_type_symbol
 _atom_site_label
 _atom_site_symmetry_multiplicity
 _atom_site_fract_x
 _atom_site_fract_y
 _atom_site_fract_z
 _atom_site_fract_occupancy
 Mo  Mo1  1  0.76468  0.77748  0.27225  1
 Mo  Mo2  1  0.77350  0.22650  0.80104  1
 Mo  Mo3  1  0.22252  0.23532  0.27225  1
 Mo  Mo4  1  0.77748  0.76468  0.72774  1
 Mo  Mo5  1  0.23532  0.22252  0.72774  1
 Mo  Mo6  1  0.22650  0.77350  0.19897  1
 O  O1  1  0.64547  0.88086  0.86454  1
 O  O2  1  0.89468  0.10532  0.12337  1
 O  O3  1  0.10532  0.89468  0.87663  1
 O  O4  1  0.35453  0.11914  0.13546  1
 O  O5  1  0.63279  0.36721  0.86913  1
 O  O6  1  0.88086  0.64547  0.13546  1
 O  O7  1  0.11914  0.35453  0.86454  1
 O  O8  1  0.61134  0.85160  0.35600  1
 O  O9  1  0.38866  0.14840  0.64400  1
 O  O10  1  0.60211  0.39789  0.35771  1
 O  O11  1  0.14840  0.38866  0.35600  1
 O  O12  1  0.39789  0.60211  0.64228  1
 O  O13  1  0.14385  0.85615  0.36316  1
 O  O14  1  0.85616  0.14384  0.63685  1
 O  O15  1  0.85160  0.61134  0.64400  1
 O  O16  1  0.36721  0.63279  0.13087  1
