CIF file written using JARVIS-Tools package.
data_MgSb2O4
_symmetry_space_group_name_H-M  'Cmcm'
_cell_length_a       3.16254
_cell_length_b       5.83685
_cell_length_c       10.6665
_cell_angle_alpha    90
_cell_angle_beta     90
_cell_angle_gamma    105.719

_symmetry_Int_Tables_number  63
_chemical_formula_structural  MgSb2O4
_chemical_formula_sum  Mg2Sb4O8
_cell_volume  189.5334130665311
_cell_formula_units_Z  2
loop_
  _symmetry_equiv_pos_site_id
 _symmetry_equiv_pos_as_xyz
 1  'x, y, z'
loop_
 _atom_site_type_symbol
 _atom_site_label
 _atom_site_symmetry_multiplicity
 _atom_site_fract_x
 _atom_site_fract_y
 _atom_site_fract_z
 _atom_site_fract_occupancy
 Mg  Mg1  1  0.38807  0.77615  0.75000  1
 Mg  Mg2  1  0.61193  0.22385  0.25000  1
 O  O1  1  0.20994  0.41988  0.38047  1
 O  O2  1  0.79006  0.58012  0.61953  1
 O  O3  1  0.79006  0.58012  0.88047  1
 O  O4  1  0.20994  0.41988  0.11953  1
 O  O5  1  0.99110  0.98220  0.25000  1
 O  O6  1  0.00890  0.01780  0.75000  1
 O  O7  1  0.50000  0.00000  0.00000  1
 O  O8  1  0.50000  0.00000  0.50000  1
 Sb  Sb1  1  0.86841  0.73683  0.07868  1
 Sb  Sb2  1  0.13159  0.26317  0.92132  1
 Sb  Sb3  1  0.86841  0.73683  0.42132  1
 Sb  Sb4  1  0.13159  0.26317  0.57868  1
