CIF file written using JARVIS-Tools package.
data_CdSb
_symmetry_space_group_name_H-M  'Pbca'
_cell_length_a       6.61853
_cell_length_b       8.37166
_cell_length_c       8.66608
_cell_angle_alpha    90
_cell_angle_beta     90
_cell_angle_gamma    90

_symmetry_Int_Tables_number  61
_chemical_formula_structural  CdSb
_chemical_formula_sum  Cd8Sb8
_cell_volume  480.1708759336916
_cell_formula_units_Z  8
loop_
  _symmetry_equiv_pos_site_id
 _symmetry_equiv_pos_as_xyz
 1  'x, y, z'
loop_
 _atom_site_type_symbol
 _atom_site_label
 _atom_site_symmetry_multiplicity
 _atom_site_fract_x
 _atom_site_fract_y
 _atom_site_fract_z
 _atom_site_fract_occupancy
 Cd  Cd1  1  0.45002  0.12281  0.86666  1
 Cd  Cd2  1  0.95002  0.37719  0.13334  1
 Cd  Cd3  1  0.54998  0.62281  0.63334  1
 Cd  Cd4  1  0.04998  0.87719  0.36666  1
 Cd  Cd5  1  0.54998  0.87719  0.13334  1
 Cd  Cd6  1  0.04998  0.62281  0.86666  1
 Cd  Cd7  1  0.45002  0.37719  0.36666  1
 Cd  Cd8  1  0.95002  0.12281  0.63334  1
 Sb  Sb1  1  0.13941  0.07416  0.10418  1
 Sb  Sb2  1  0.63941  0.42584  0.89582  1
 Sb  Sb3  1  0.86059  0.57416  0.39582  1
 Sb  Sb4  1  0.36059  0.92584  0.60418  1
 Sb  Sb5  1  0.86059  0.92584  0.89582  1
 Sb  Sb6  1  0.36059  0.57416  0.10418  1
 Sb  Sb7  1  0.13941  0.42584  0.60418  1
 Sb  Sb8  1  0.63941  0.07416  0.39582  1
