CIF file written using JARVIS-Tools package.
data_ThPb
_symmetry_space_group_name_H-M  'P4/mmm'
_cell_length_a       4.54012
_cell_length_b       5.1596
_cell_length_c       5.1596
_cell_angle_alpha    90
_cell_angle_beta     90
_cell_angle_gamma    90

_symmetry_Int_Tables_number  123
_chemical_formula_structural  ThPb
_chemical_formula_sum  Th2Pb2
_cell_volume  120.86450276497975
_cell_formula_units_Z  2
loop_
  _symmetry_equiv_pos_site_id
 _symmetry_equiv_pos_as_xyz
 1  'x, y, z'
loop_
 _atom_site_type_symbol
 _atom_site_label
 _atom_site_symmetry_multiplicity
 _atom_site_fract_x
 _atom_site_fract_y
 _atom_site_fract_z
 _atom_site_fract_occupancy
 Pb  Pb1  1  0.00000  0.00000  0.00000  1
 Pb  Pb2  1  0.00000  0.50000  0.50000  1
 Th  Th1  1  0.50000  0.00000  0.50000  1
 Th  Th2  1  0.50000  0.50000  0.00000  1
