CIF file written using JARVIS-Tools package.
data_Sr2CeO4
_symmetry_space_group_name_H-M  'Pbam'
_cell_length_a       3.62173
_cell_length_b       6.14225
_cell_length_c       10.3761
_cell_angle_alpha    90
_cell_angle_beta     90
_cell_angle_gamma    90

_symmetry_Int_Tables_number  55
_chemical_formula_structural  Sr2CeO4
_chemical_formula_sum  Sr4Ce2O8
_cell_volume  230.82308747400626
_cell_formula_units_Z  2
loop_
  _symmetry_equiv_pos_site_id
 _symmetry_equiv_pos_as_xyz
 1  'x, y, z'
loop_
 _atom_site_type_symbol
 _atom_site_label
 _atom_site_symmetry_multiplicity
 _atom_site_fract_x
 _atom_site_fract_y
 _atom_site_fract_z
 _atom_site_fract_occupancy
 Ce  Ce1  1  0.00000  0.50000  0.50000  1
 Ce  Ce2  1  0.00000  0.00000  0.00000  1
 O  O1  1  0.50000  0.27350  0.45693  1
 O  O2  1  0.50000  0.72650  0.54307  1
 O  O3  1  0.50000  0.77350  0.04307  1
 O  O4  1  0.50000  0.22650  0.95693  1
 O  O5  1  0.00000  0.64370  0.30523  1
 O  O6  1  0.00000  0.35630  0.69477  1
 O  O7  1  0.00000  0.85630  0.80523  1
 O  O8  1  0.00000  0.14370  0.19477  1
 Sr  Sr1  1  0.50000  0.43656  0.17931  1
 Sr  Sr2  1  0.50000  0.56344  0.82069  1
 Sr  Sr3  1  0.50000  0.93656  0.32069  1
 Sr  Sr4  1  0.50000  0.06344  0.67931  1
