CIF file written using JARVIS-Tools package.
data_Na2SnF6
_symmetry_space_group_name_H-M  'P4_2/mnm'
_cell_length_a       5.08773
_cell_length_b       5.08773
_cell_length_c       10.1685
_cell_angle_alpha    90
_cell_angle_beta     90
_cell_angle_gamma    90

_symmetry_Int_Tables_number  136
_chemical_formula_structural  Na2SnF6
_chemical_formula_sum  Na4Sn2F2
_cell_volume  263.2119536741067
_cell_formula_units_Z  2
loop_
  _symmetry_equiv_pos_site_id
 _symmetry_equiv_pos_as_xyz
 1  'x, y, z'
loop_
 _atom_site_type_symbol
 _atom_site_label
 _atom_site_symmetry_multiplicity
 _atom_site_fract_x
 _atom_site_fract_y
 _atom_site_fract_z
 _atom_site_fract_occupancy
 F  F1  1  0.18723  0.81277  0.14620  1
 F  F2  1  0.72135  0.72135  0.00000  1
 F  F3  1  0.77865  0.22135  0.50000  1
 F  F4  1  0.18723  0.81277  0.85380  1
 F  F5  1  0.27865  0.27865  0.00000  1
 F  F6  1  0.22135  0.77865  0.50000  1
 F  F7  1  0.31277  0.31277  0.35380  1
 F  F8  1  0.31277  0.31277  0.64620  1
 F  F9  1  0.68723  0.68723  0.64620  1
 F  F10  1  0.81277  0.18723  0.14620  1
 F  F11  1  0.81277  0.18723  0.85380  1
 F  F12  1  0.68723  0.68723  0.35380  1
 Na  Na1  1  0.50000  0.50000  0.16393  1
 Na  Na2  1  0.00000  0.00000  0.66393  1
 Na  Na3  1  0.50000  0.50000  0.83607  1
 Na  Na4  1  0.00000  0.00000  0.33607  1
 Sn  Sn1  1  0.50000  0.50000  0.50000  1
 Sn  Sn2  1  0.00000  0.00000  0.00000  1
