CIF file written using JARVIS-Tools package.
data_Sr3AlO4F
_symmetry_space_group_name_H-M  'I4/mcm'
_cell_length_a       6.78446
_cell_length_b       6.78446
_cell_length_c       7.38605
_cell_angle_alpha    117.34
_cell_angle_beta     117.34
_cell_angle_gamma    89.9999

_symmetry_Int_Tables_number  140
_chemical_formula_structural  Sr3AlO4F
_chemical_formula_sum  Sr6Al2O8F2
_cell_volume  258.4978466066931
_cell_formula_units_Z  2
loop_
  _symmetry_equiv_pos_site_id
 _symmetry_equiv_pos_as_xyz
 1  'x, y, z'
loop_
 _atom_site_type_symbol
 _atom_site_label
 _atom_site_symmetry_multiplicity
 _atom_site_fract_x
 _atom_site_fract_y
 _atom_site_fract_z
 _atom_site_fract_occupancy
 Al  Al1  1  0.25000  0.75000  0.50000  1
 Al  Al2  1  0.75000  0.25000  0.50000  1
 F  F1  1  0.00000  0.00000  0.00000  1
 F  F2  1  0.50000  0.50000  -0.00000  1
 O  O1  1  0.79128  0.29128  0.29615  1
 O  O2  1  0.20872  0.70872  0.70385  1
 O  O3  1  0.49512  0.99512  0.70385  1
 O  O4  1  0.70872  0.49512  0.70385  1
 O  O5  1  0.99512  0.20872  0.70385  1
 O  O6  1  0.29128  0.50488  0.29615  1
 O  O7  1  0.50488  0.00488  0.29615  1
 O  O8  1  0.00488  0.79128  0.29615  1
 Sr  Sr1  1  0.75000  0.75000  0.50000  1
 Sr  Sr2  1  0.83218  0.33218  -0.00000  1
 Sr  Sr3  1  0.66782  0.83218  -0.00000  1
 Sr  Sr4  1  0.33218  0.16782  0.00000  1
 Sr  Sr5  1  0.16782  0.66782  0.00000  1
 Sr  Sr6  1  0.25000  0.25000  0.50000  1
