CIF file written using JARVIS-Tools package.
data_H8PtN2Cl6
_symmetry_space_group_name_H-M  'Fm-3m'
_cell_length_a       6.91978
_cell_length_b       6.91978
_cell_length_c       6.91978
_cell_angle_alpha    60
_cell_angle_beta     60
_cell_angle_gamma    60

_symmetry_Int_Tables_number  225
_chemical_formula_structural  H8PtN2Cl6
_chemical_formula_sum  H8PtN2Cl6
_cell_volume  234.29469096305152
_cell_formula_units_Z  1
loop_
  _symmetry_equiv_pos_site_id
 _symmetry_equiv_pos_as_xyz
 1  'x, y, z'
loop_
 _atom_site_type_symbol
 _atom_site_label
 _atom_site_symmetry_multiplicity
 _atom_site_fract_x
 _atom_site_fract_y
 _atom_site_fract_z
 _atom_site_fract_occupancy
 Cl  Cl1  1  0.24029  0.75971  0.24029  1
 Cl  Cl2  1  0.75971  0.75971  0.24029  1
 Cl  Cl3  1  0.75971  0.24029  0.24029  1
 Cl  Cl4  1  0.24029  0.75971  0.75971  1
 Cl  Cl5  1  0.75971  0.24029  0.75971  1
 Cl  Cl6  1  0.24029  0.24029  0.75971  1
 H  H1  1  0.06663  0.31112  0.31112  1
 H  H2  1  0.93337  0.68888  0.68888  1
 H  H3  1  0.68888  0.93337  0.68888  1
 H  H4  1  0.68888  0.68888  0.93337  1
 H  H5  1  0.31112  0.06663  0.31112  1
 H  H6  1  0.31112  0.31112  0.06663  1
 H  H7  1  0.31112  0.31112  0.31112  1
 H  H8  1  0.68888  0.68888  0.68888  1
 N  N1  1  0.25000  0.25000  0.25000  1
 N  N2  1  0.75000  0.75000  0.75000  1
 Pt  Pt1  1  0.00000  0.00000  0.00000  1
