CIF file written using JARVIS-Tools package.
data_ErFe4Ge2
_symmetry_space_group_name_H-M  'Pnnm'
_cell_length_a       4.04383
_cell_length_b       6.60207
_cell_length_c       7.57503
_cell_angle_alpha    90
_cell_angle_beta     90
_cell_angle_gamma    90

_symmetry_Int_Tables_number  58
_chemical_formula_structural  ErFe4Ge2
_chemical_formula_sum  Er2Fe8Ge4
_cell_volume  202.2352937200459
_cell_formula_units_Z  2
loop_
  _symmetry_equiv_pos_site_id
 _symmetry_equiv_pos_as_xyz
 1  'x, y, z'
loop_
 _atom_site_type_symbol
 _atom_site_label
 _atom_site_symmetry_multiplicity
 _atom_site_fract_x
 _atom_site_fract_y
 _atom_site_fract_z
 _atom_site_fract_occupancy
 Er  Er1  1  0.00000  0.50000  0.50000  1
 Er  Er2  1  0.50000  0.00000  0.00000  1
 Fe  Fe1  1  0.00000  0.06510  0.35070  1
 Fe  Fe2  1  0.50000  0.56510  0.14930  1
 Fe  Fe3  1  0.00000  0.64231  0.87914  1
 Fe  Fe4  1  0.00000  0.35769  0.12086  1
 Fe  Fe5  1  0.50000  0.14231  0.62086  1
 Fe  Fe6  1  0.50000  0.43490  0.85070  1
 Fe  Fe7  1  0.00000  0.93490  0.64930  1
 Fe  Fe8  1  0.50000  0.85769  0.37914  1
 Ge  Ge1  1  0.00000  0.75554  0.18546  1
 Ge  Ge2  1  0.50000  0.74446  0.68546  1
 Ge  Ge3  1  0.00000  0.24446  0.81454  1
 Ge  Ge4  1  0.50000  0.25554  0.31454  1
