CIF file written using JARVIS-Tools package.
data_InTe
_symmetry_space_group_name_H-M  'I4/mcm'
_cell_length_a       7.04595
_cell_length_b       7.04595
_cell_length_c       7.04595
_cell_angle_alpha    105.358
_cell_angle_beta     105.358
_cell_angle_gamma    118.053

_symmetry_Int_Tables_number  140
_chemical_formula_structural  InTe
_chemical_formula_sum  In4Te4
_cell_volume  264.6822698023172
_cell_formula_units_Z  4
loop_
  _symmetry_equiv_pos_site_id
 _symmetry_equiv_pos_as_xyz
 1  'x, y, z'
loop_
 _atom_site_type_symbol
 _atom_site_label
 _atom_site_symmetry_multiplicity
 _atom_site_fract_x
 _atom_site_fract_y
 _atom_site_fract_z
 _atom_site_fract_occupancy
 In  In1  1  0.25000  0.25000  0.00000  1
 In  In2  1  0.75000  0.75000  -0.00000  1
 In  In3  1  0.75000  0.25000  0.50000  1
 In  In4  1  0.25000  0.75000  0.50000  1
 Te  Te1  1  0.68358  0.18358  0.86716  1
 Te  Te2  1  0.18358  0.31642  0.50000  1
 Te  Te3  1  0.81642  0.68358  0.50000  1
 Te  Te4  1  0.31642  0.81642  0.13284  1
