CIF file written using JARVIS-Tools package.
data_Sr5Bi3
_symmetry_space_group_name_H-M  'P6_3/mcm'
_cell_length_a       9.71678
_cell_length_b       9.71678
_cell_length_c       7.47806
_cell_angle_alpha    90
_cell_angle_beta     90
_cell_angle_gamma    120

_symmetry_Int_Tables_number  193
_chemical_formula_structural  Sr5Bi3
_chemical_formula_sum  Sr0Bi6
_cell_volume  611.4539928618652
_cell_formula_units_Z  2
loop_
  _symmetry_equiv_pos_site_id
 _symmetry_equiv_pos_as_xyz
 1  'x, y, z'
loop_
 _atom_site_type_symbol
 _atom_site_label
 _atom_site_symmetry_multiplicity
 _atom_site_fract_x
 _atom_site_fract_y
 _atom_site_fract_z
 _atom_site_fract_occupancy
 Bi  Bi1  1  0.39030  -0.00000  0.25000  1
 Bi  Bi2  1  0.39030  0.39030  0.75000  1
 Bi  Bi3  1  0.00000  0.60970  0.75000  1
 Bi  Bi4  1  -0.00000  0.39030  0.25000  1
 Bi  Bi5  1  0.60970  0.60970  0.25000  1
 Bi  Bi6  1  0.60970  0.00000  0.75000  1
 Sr  Sr1  1  0.33333  0.66667  0.00000  1
 Sr  Sr2  1  0.66667  0.33333  0.50000  1
 Sr  Sr3  1  0.66667  0.33333  0.00000  1
 Sr  Sr4  1  0.33333  0.66667  0.50000  1
 Sr  Sr5  1  0.74832  -0.00000  0.25000  1
 Sr  Sr6  1  0.74832  0.74832  0.75000  1
 Sr  Sr7  1  0.00000  0.25168  0.75000  1
 Sr  Sr8  1  -0.00000  0.74832  0.25000  1
 Sr  Sr9  1  0.25168  0.25168  0.25000  1
 Sr  Sr10  1  0.25168  0.00000  0.75000  1
