CIF file written using JARVIS-Tools package.
data_BaMg2FeH8
_symmetry_space_group_name_H-M  'P-3m1'
_cell_length_a       4.55232
_cell_length_b       4.55232
_cell_length_c       6.93721
_cell_angle_alpha    90
_cell_angle_beta     90
_cell_angle_gamma    120

_symmetry_Int_Tables_number  164
_chemical_formula_structural  BaMg2FeH8
_chemical_formula_sum  BaMg2FeH8
_cell_volume  124.50332202713983
_cell_formula_units_Z  1
loop_
  _symmetry_equiv_pos_site_id
 _symmetry_equiv_pos_as_xyz
 1  'x, y, z'
loop_
 _atom_site_type_symbol
 _atom_site_label
 _atom_site_symmetry_multiplicity
 _atom_site_fract_x
 _atom_site_fract_y
 _atom_site_fract_z
 _atom_site_fract_occupancy
 Ba  Ba1  1  0.00000  0.00000  0.50000  1
 Fe  Fe1  1  0.00000  0.00000  0.00000  1
 H  H1  1  0.83953  0.67906  0.86377  1
 H  H2  1  0.32094  0.16047  0.86377  1
 H  H3  1  0.83953  0.16047  0.86377  1
 H  H4  1  0.16047  0.32094  0.13623  1
 H  H5  1  0.67906  0.83953  0.13623  1
 H  H6  1  0.16047  0.83953  0.13623  1
 H  H7  1  0.66667  0.33333  0.38892  1
 H  H8  1  0.33333  0.66667  0.61108  1
 Mg  Mg1  1  0.66667  0.33333  0.11262  1
 Mg  Mg2  1  0.33333  0.66667  0.88738  1
