CIF file written using JARVIS-Tools package.
data_CaNiWO6
_symmetry_space_group_name_H-M  'Pc'
_cell_length_a       5.23369
_cell_length_b       5.31217
_cell_length_c       9.09921
_cell_angle_alpha    90
_cell_angle_beta     125.002
_cell_angle_gamma    90

_symmetry_Int_Tables_number  7
_chemical_formula_structural  CaNiWO6
_chemical_formula_sum  Ca2Ni2W2O2
_cell_volume  207.2218675691618
_cell_formula_units_Z  2
loop_
  _symmetry_equiv_pos_site_id
 _symmetry_equiv_pos_as_xyz
 1  'x, y, z'
loop_
 _atom_site_type_symbol
 _atom_site_label
 _atom_site_symmetry_multiplicity
 _atom_site_fract_x
 _atom_site_fract_y
 _atom_site_fract_z
 _atom_site_fract_occupancy
 Ca  Ca1  1  0.76217  0.70065  0.25110  1
 Ca  Ca2  1  0.76217  0.29935  0.75110  1
 Ni  Ni1  1  0.00179  0.74785  0.99981  1
 Ni  Ni2  1  0.00179  0.25215  0.49981  1
 O  O1  1  0.67476  0.74123  0.75281  1
 O  O2  1  0.32286  0.24037  0.74819  1
 O  O3  1  0.16610  0.03717  0.96183  1
 O  O4  1  0.67476  0.25877  0.25281  1
 O  O5  1  0.32286  0.75963  0.24819  1
 O  O6  1  0.75204  0.04642  0.54036  1
 O  O7  1  0.25160  0.46008  0.46117  1
 O  O8  1  0.25160  0.53992  0.96117  1
 O  O9  1  0.83220  0.45796  0.03693  1
 O  O10  1  0.16610  0.96283  0.46183  1
 O  O11  1  0.75204  0.95358  0.04036  1
 O  O12  1  0.83220  0.54204  0.53693  1
 W  W1  1  0.50208  0.76436  0.50057  1
 W  W2  1  0.50208  0.23564  0.00057  1
