CIF file written using JARVIS-Tools package.
data_Fe2Te4H3ClO12
_symmetry_space_group_name_H-M  'P-1'
_cell_length_a       5.12374
_cell_length_b       6.73138
_cell_length_c       8.99815
_cell_angle_alpha    72.8074
_cell_angle_beta     78.2001
_cell_angle_gamma    76.6096

_symmetry_Int_Tables_number  2
_chemical_formula_structural  Fe2Te4H3ClO12
_chemical_formula_sum  Fe2Te4H3ClO2
_cell_volume  285.31076642558816
_cell_formula_units_Z  1
loop_
  _symmetry_equiv_pos_site_id
 _symmetry_equiv_pos_as_xyz
 1  'x, y, z'
loop_
 _atom_site_type_symbol
 _atom_site_label
 _atom_site_symmetry_multiplicity
 _atom_site_fract_x
 _atom_site_fract_y
 _atom_site_fract_z
 _atom_site_fract_occupancy
 Cl  Cl1  1  0.00000  0.00000  0.00000  1
 Fe  Fe1  1  0.72316  0.14833  0.44638  1
 Fe  Fe2  1  0.27684  0.85167  0.55362  1
 H  H1  1  0.55841  0.53495  0.20959  1
 H  H2  1  0.44159  0.46505  0.79041  1
 H  H3  1  0.00000  0.50000  -0.00000  1
 O  O1  1  0.89919  0.56530  0.88004  1
 O  O2  1  0.19181  0.59330  0.53627  1
 O  O3  1  0.63656  0.86755  0.41138  1
 O  O4  1  0.36344  0.13245  0.58862  1
 O  O5  1  0.80819  0.40670  0.46373  1
 O  O6  1  0.40716  0.31586  0.80866  1
 O  O7  1  0.45410  0.70996  0.73857  1
 O  O8  1  0.11217  0.04110  0.35233  1
 O  O9  1  0.88783  0.95890  0.64767  1
 O  O10  1  0.59284  0.68414  0.19134  1
 O  O11  1  0.54590  0.29004  0.26143  1
 O  O12  1  0.10081  0.43470  0.11996  1
 Te  Te1  1  0.34170  0.16959  0.16470  1
 Te  Te2  1  0.65830  0.83041  0.83530  1
 Te  Te3  1  0.11377  0.33688  0.69009  1
 Te  Te4  1  0.88623  0.66312  0.30991  1
