CIF file written using JARVIS-Tools package.
data_Ni3Sn
_symmetry_space_group_name_H-M  'P6_3/mmc'
_cell_length_a       5.31811
_cell_length_b       5.31811
_cell_length_c       4.25811
_cell_angle_alpha    90
_cell_angle_beta     90
_cell_angle_gamma    120

_symmetry_Int_Tables_number  194
_chemical_formula_structural  Ni3Sn
_chemical_formula_sum  Ni6Sn2
_cell_volume  104.29465355787102
_cell_formula_units_Z  2
loop_
  _symmetry_equiv_pos_site_id
 _symmetry_equiv_pos_as_xyz
 1  'x, y, z'
loop_
 _atom_site_type_symbol
 _atom_site_label
 _atom_site_symmetry_multiplicity
 _atom_site_fract_x
 _atom_site_fract_y
 _atom_site_fract_z
 _atom_site_fract_occupancy
 Ni  Ni1  1  0.84053  0.68106  0.25000  1
 Ni  Ni2  1  0.15947  0.84053  0.75000  1
 Ni  Ni3  1  0.68106  0.84053  0.75000  1
 Ni  Ni4  1  0.31894  0.15947  0.25000  1
 Ni  Ni5  1  0.84053  0.15947  0.25000  1
 Ni  Ni6  1  0.15947  0.31894  0.75000  1
 Sn  Sn1  1  0.33333  0.66667  0.25000  1
 Sn  Sn2  1  0.66667  0.33333  0.75000  1
