CIF file written using JARVIS-Tools package.
data_Au3Br
_symmetry_space_group_name_H-M  'I4/mmm'
_cell_length_a       5.27192
_cell_length_b       5.27192
_cell_length_c       5.27192
_cell_angle_alpha    132.27
_cell_angle_beta     132.27
_cell_angle_gamma    69.8029

_symmetry_Int_Tables_number  139
_chemical_formula_structural  Au3Br
_chemical_formula_sum  Au3Br
_cell_volume  78.68074496288384
_cell_formula_units_Z  1
loop_
  _symmetry_equiv_pos_site_id
 _symmetry_equiv_pos_as_xyz
 1  'x, y, z'
loop_
 _atom_site_type_symbol
 _atom_site_label
 _atom_site_symmetry_multiplicity
 _atom_site_fract_x
 _atom_site_fract_y
 _atom_site_fract_z
 _atom_site_fract_occupancy
 Au  Au1  1  0.75000  0.25000  0.50000  1
 Au  Au2  1  0.25000  0.75000  0.50000  1
 Au  Au3  1  0.50000  0.50000  0.00000  1
 Br  Br1  1  0.00000  0.00000  0.00000  1
