CIF file written using JARVIS-Tools package.
data_Mn2ZnO4
_symmetry_space_group_name_H-M  'Imma'
_cell_length_a       6.02672
_cell_length_b       6.02672
_cell_length_c       5.89898
_cell_angle_alpha    60.6986
_cell_angle_beta     60.6987
_cell_angle_gamma    59.2778

_symmetry_Int_Tables_number  74
_chemical_formula_structural  Mn2ZnO4
_chemical_formula_sum  Mn4Zn2O8
_cell_volume  152.21399839440355
_cell_formula_units_Z  2
loop_
  _symmetry_equiv_pos_site_id
 _symmetry_equiv_pos_as_xyz
 1  'x, y, z'
loop_
 _atom_site_type_symbol
 _atom_site_label
 _atom_site_symmetry_multiplicity
 _atom_site_fract_x
 _atom_site_fract_y
 _atom_site_fract_z
 _atom_site_fract_occupancy
 Mn  Mn1  1  0.98997  0.98997  0.01003  1
 Mn  Mn2  1  0.26003  0.26003  0.23997  1
 Mn  Mn3  1  0.62500  0.62500  0.12500  1
 Mn  Mn4  1  0.62500  0.62500  0.62500  1
 O  O1  1  0.40225  0.40225  0.35808  1
 O  O2  1  0.40439  0.84825  0.37368  1
 O  O3  1  0.40225  0.40225  0.83743  1
 O  O4  1  0.84825  0.40439  0.37368  1
 O  O5  1  0.40175  0.84561  0.87632  1
 O  O6  1  0.84561  0.40175  0.87632  1
 O  O7  1  0.84775  0.84775  0.41257  1
 O  O8  1  0.84775  0.84775  0.89192  1
 Zn  Zn1  1  0.12500  0.62500  0.62500  1
 Zn  Zn2  1  0.62500  0.12500  0.62500  1
