CIF file written using JARVIS-Tools package.
data_PbAuO2
_symmetry_space_group_name_H-M  'R-3m'
_cell_length_a       3.72629
_cell_length_b       3.72629
_cell_length_c       6.58412
_cell_angle_alpha    73.5621
_cell_angle_beta     73.5621
_cell_angle_gamma    60

_symmetry_Int_Tables_number  166
_chemical_formula_structural  PbAuO2
_chemical_formula_sum  PbAuO2
_cell_volume  74.82785090934539
_cell_formula_units_Z  1
loop_
  _symmetry_equiv_pos_site_id
 _symmetry_equiv_pos_as_xyz
 1  'x, y, z'
loop_
 _atom_site_type_symbol
 _atom_site_label
 _atom_site_symmetry_multiplicity
 _atom_site_fract_x
 _atom_site_fract_y
 _atom_site_fract_z
 _atom_site_fract_occupancy
 Au  Au1  1  0.00000  0.00000  0.00000  1
 O  O1  1  0.10627  0.10627  0.68118  1
 O  O2  1  0.89373  0.89373  0.31882  1
 Pb  Pb1  1  0.50000  0.50000  0.50000  1
