CIF file written using JARVIS-Tools package.
data_MnOF
_symmetry_space_group_name_H-M  'Pmmn'
_cell_length_a       3.79958
_cell_length_b       5.91191
_cell_length_c       2.76207
_cell_angle_alpha    90.0009
_cell_angle_beta     90
_cell_angle_gamma    90

_symmetry_Int_Tables_number  59
_chemical_formula_structural  MnOF
_chemical_formula_sum  Mn2O2F2
_cell_volume  62.043583527751245
_cell_formula_units_Z  2
loop_
  _symmetry_equiv_pos_site_id
 _symmetry_equiv_pos_as_xyz
 1  'x, y, z'
loop_
 _atom_site_type_symbol
 _atom_site_label
 _atom_site_symmetry_multiplicity
 _atom_site_fract_x
 _atom_site_fract_y
 _atom_site_fract_z
 _atom_site_fract_occupancy
 F  F1  1  0.25000  0.36585  0.25000  1
 F  F2  1  0.75000  0.63415  0.75000  1
 Mn  Mn1  1  0.25000  0.14317  0.75000  1
 Mn  Mn2  1  0.75000  0.85682  0.25000  1
 O  O1  1  0.25000  0.90798  0.24999  1
 O  O2  1  0.75000  0.09202  0.75001  1
