CIF file written using JARVIS-Tools package.
data_CaNi2O4
_symmetry_space_group_name_H-M  'R3m'
_cell_length_a       6.18137
_cell_length_b       6.00686
_cell_length_c       6.00686
_cell_angle_alpha    60
_cell_angle_beta     60.9296
_cell_angle_gamma    60.9295

_symmetry_Int_Tables_number  160
_chemical_formula_structural  CaNi2O4
_chemical_formula_sum  Ca2Ni4O8
_cell_volume  159.8915555701459
_cell_formula_units_Z  2
loop_
  _symmetry_equiv_pos_site_id
 _symmetry_equiv_pos_as_xyz
 1  'x, y, z'
loop_
 _atom_site_type_symbol
 _atom_site_label
 _atom_site_symmetry_multiplicity
 _atom_site_fract_x
 _atom_site_fract_y
 _atom_site_fract_z
 _atom_site_fract_occupancy
 Ca  Ca1  1  0.96502  0.01166  0.01166  1
 Ca  Ca2  1  0.13226  0.62258  0.62258  1
 Ni  Ni1  1  0.27274  0.24242  0.24242  1
 Ni  Ni2  1  0.61929  0.12052  0.63009  1
 Ni  Ni3  1  0.61929  0.63009  0.12052  1
 Ni  Ni4  1  0.61929  0.63009  0.63009  1
 O  O1  1  0.43526  0.36206  0.36206  1
 O  O2  1  0.43526  0.36206  0.84062  1
 O  O3  1  0.43526  0.84062  0.36206  1
 O  O4  1  0.90045  0.36652  0.36652  1
 O  O5  1  0.40223  0.86592  0.86592  1
 O  O6  1  0.80455  0.44389  0.87578  1
 O  O7  1  0.80455  0.87578  0.44389  1
 O  O8  1  0.80455  0.87578  0.87578  1
