CIF file written using JARVIS-Tools package.
data_ZrGeO4
_symmetry_space_group_name_H-M  'I4_1/a'
_cell_length_a       4.91714
_cell_length_b       4.91713
_cell_length_c       6.35958
_cell_angle_alpha    112.741
_cell_angle_beta     112.743
_cell_angle_gamma    90.0016

_symmetry_Int_Tables_number  88
_chemical_formula_structural  ZrGeO4
_chemical_formula_sum  Zr2Ge2O8
_cell_volume  128.7486109936568
_cell_formula_units_Z  2
loop_
  _symmetry_equiv_pos_site_id
 _symmetry_equiv_pos_as_xyz
 1  'x, y, z'
loop_
 _atom_site_type_symbol
 _atom_site_label
 _atom_site_symmetry_multiplicity
 _atom_site_fract_x
 _atom_site_fract_y
 _atom_site_fract_z
 _atom_site_fract_occupancy
 Ge  Ge1  1  0.87500  0.12499  0.24998  1
 Ge  Ge2  1  0.12500  0.87501  0.75002  1
 O  O1  1  0.61944  0.31064  0.08548  1
 O  O2  1  0.77483  0.61946  0.58548  1
 O  O3  1  0.31063  0.96602  0.58548  1
 O  O4  1  0.96604  0.77484  0.08547  1
 O  O5  1  0.03396  0.22516  0.91453  1
 O  O6  1  0.68937  0.03398  0.41452  1
 O  O7  1  0.22517  0.38054  0.41452  1
 O  O8  1  0.38056  0.68936  0.91452  1
 Zr  Zr1  1  0.37501  0.62501  0.25001  1
 Zr  Zr2  1  0.62499  0.37499  0.74999  1
