CIF file written using JARVIS-Tools package.
data_V2Cu3H6O11
_symmetry_space_group_name_H-M  'C2/m'
_cell_length_a       6.15792
_cell_length_b       6.15792
_cell_length_c       7.18065
_cell_angle_alpha    83.6226
_cell_angle_beta     96.3774
_cell_angle_gamma    123.031

_symmetry_Int_Tables_number  12
_chemical_formula_structural  V2Cu3H6O11
_chemical_formula_sum  V2Cu3H6O
_cell_volume  226.45098453492972
_cell_formula_units_Z  1
loop_
  _symmetry_equiv_pos_site_id
 _symmetry_equiv_pos_as_xyz
 1  'x, y, z'
loop_
 _atom_site_type_symbol
 _atom_site_label
 _atom_site_symmetry_multiplicity
 _atom_site_fract_x
 _atom_site_fract_y
 _atom_site_fract_z
 _atom_site_fract_occupancy
 Cu  Cu1  1  0.00000  0.00000  0.00000  1
 Cu  Cu2  1  -0.00000  0.50000  -0.00000  1
 Cu  Cu3  1  0.50000  0.00000  0.00000  1
 H  H1  1  0.01452  0.72362  0.43593  1
 H  H2  1  0.98548  0.27638  0.56407  1
 H  H3  1  0.27638  0.98548  0.43593  1
 H  H4  1  0.72362  0.01452  0.56407  1
 H  H5  1  0.85169  0.14831  0.26316  1
 H  H6  1  0.14831  0.85169  0.73684  1
 O  O1  1  0.34078  0.65922  0.14395  1
 O  O2  1  0.33627  0.18938  0.18985  1
 O  O3  1  0.81062  0.66373  0.18985  1
 O  O4  1  0.66373  0.81062  0.81015  1
 O  O5  1  0.18938  0.33627  0.81015  1
 O  O6  1  0.83077  0.16923  0.48114  1
 O  O7  1  0.15282  0.84718  0.88052  1
 O  O8  1  0.50000  0.50000  0.50000  1
 O  O9  1  0.16923  0.83077  0.51886  1
 O  O10  1  0.65922  0.34078  0.85605  1
 O  O11  1  0.84718  0.15282  0.11948  1
 V  V1  1  0.49785  0.50215  0.25154  1
 V  V2  1  0.50215  0.49785  0.74846  1
