CIF file written using JARVIS-Tools package.
data_CaAl4
_symmetry_space_group_name_H-M  'I4/mmm'
_cell_length_a       4.36143
_cell_length_b       4.36143
_cell_length_c       6.41556
_cell_angle_alpha    109.871
_cell_angle_beta     109.871
_cell_angle_gamma    90.0001

_symmetry_Int_Tables_number  139
_chemical_formula_structural  CaAl4
_chemical_formula_sum  CaAl4
_cell_volume  107.01182050462198
_cell_formula_units_Z  1
loop_
  _symmetry_equiv_pos_site_id
 _symmetry_equiv_pos_as_xyz
 1  'x, y, z'
loop_
 _atom_site_type_symbol
 _atom_site_label
 _atom_site_symmetry_multiplicity
 _atom_site_fract_x
 _atom_site_fract_y
 _atom_site_fract_z
 _atom_site_fract_occupancy
 Al  Al1  1  0.25000  0.75000  0.50000  1
 Al  Al2  1  0.38652  0.38652  0.77304  1
 Al  Al3  1  0.61348  0.61348  0.22696  1
 Al  Al4  1  0.75000  0.25000  0.50000  1
 Ca  Ca1  1  0.00000  0.00000  0.00000  1
