CIF file written using JARVIS-Tools package.
data_SmS
_symmetry_space_group_name_H-M  'I4/mmm'
_cell_length_a       3.92953
_cell_length_b       3.92952
_cell_length_c       7.35989
_cell_angle_alpha    105.483
_cell_angle_beta     105.483
_cell_angle_gamma    90.0013

_symmetry_Int_Tables_number  139
_chemical_formula_structural  SmS
_chemical_formula_sum  Sm2S2
_cell_volume  105.23559747528303
_cell_formula_units_Z  2
loop_
  _symmetry_equiv_pos_site_id
 _symmetry_equiv_pos_as_xyz
 1  'x, y, z'
loop_
 _atom_site_type_symbol
 _atom_site_label
 _atom_site_symmetry_multiplicity
 _atom_site_fract_x
 _atom_site_fract_y
 _atom_site_fract_z
 _atom_site_fract_occupancy
 S  S1  1  0.13825  0.13525  0.27351  1
 S  S2  1  0.86475  0.86175  0.72649  1
 Sm  Sm1  1  0.34468  0.34168  0.68636  1
 Sm  Sm2  1  0.65832  0.65532  0.31364  1
