CIF file written using JARVIS-Tools package.
data_MgNi2O4
_symmetry_space_group_name_H-M  'R3m'
_cell_length_a       5.80916
_cell_length_b       5.82655
_cell_length_c       5.82655
_cell_angle_alpha    60
_cell_angle_beta     59.901
_cell_angle_gamma    59.901

_symmetry_Int_Tables_number  160
_chemical_formula_structural  MgNi2O4
_chemical_formula_sum  Mg2Ni4O8
_cell_volume  139.24188164724364
_cell_formula_units_Z  2
loop_
  _symmetry_equiv_pos_site_id
 _symmetry_equiv_pos_as_xyz
 1  'x, y, z'
loop_
 _atom_site_type_symbol
 _atom_site_label
 _atom_site_symmetry_multiplicity
 _atom_site_fract_x
 _atom_site_fract_y
 _atom_site_fract_z
 _atom_site_fract_occupancy
 Mg  Mg1  1  0.97440  0.00853  0.00853  1
 Mg  Mg2  1  0.12474  0.62509  0.62509  1
 Ni  Ni1  1  0.25760  0.24747  0.24747  1
 Ni  Ni2  1  0.62537  0.12307  0.62578  1
 Ni  Ni3  1  0.62537  0.62578  0.12307  1
 Ni  Ni4  1  0.62537  0.62578  0.62578  1
 O  O1  1  0.40757  0.37602  0.37602  1
 O  O2  1  0.40757  0.37602  0.84039  1
 O  O3  1  0.40757  0.84039  0.37602  1
 O  O4  1  0.86072  0.37976  0.37976  1
 O  O5  1  0.39815  0.86728  0.86728  1
 O  O6  1  0.84519  0.41669  0.86906  1
 O  O7  1  0.84519  0.86906  0.41669  1
 O  O8  1  0.84519  0.86906  0.86906  1
