CIF file written using JARVIS-Tools package.
data_Na2InPCO7
_symmetry_space_group_name_H-M  'P2_1/m'
_cell_length_a       5.22089
_cell_length_b       6.76819
_cell_length_c       9.12274
_cell_angle_alpha    90
_cell_angle_beta     89.7465
_cell_angle_gamma    90

_symmetry_Int_Tables_number  11
_chemical_formula_structural  Na2InPCO7
_chemical_formula_sum  Na4In2P2C2O4
_cell_volume  322.35796939494145
_cell_formula_units_Z  2
loop_
  _symmetry_equiv_pos_site_id
 _symmetry_equiv_pos_as_xyz
 1  'x, y, z'
loop_
 _atom_site_type_symbol
 _atom_site_label
 _atom_site_symmetry_multiplicity
 _atom_site_fract_x
 _atom_site_fract_y
 _atom_site_fract_z
 _atom_site_fract_occupancy
 C  C1  1  0.71672  0.75000  0.07648  1
 C  C2  1  0.28328  0.25000  0.92352  1
 In  In1  1  0.77958  0.75000  0.36549  1
 In  In2  1  0.22042  0.25000  0.63451  1
 Na  Na1  1  0.22951  0.49653  0.21477  1
 Na  Na2  1  0.22951  0.00347  0.21477  1
 Na  Na3  1  0.77049  0.50347  0.78523  1
 Na  Na4  1  0.77049  0.99653  0.78523  1
 O  O1  1  0.32873  0.25000  0.05884  1
 O  O2  1  0.05307  0.25000  0.86760  1
 O  O3  1  0.52765  0.75000  0.17516  1
 O  O4  1  0.81298  0.06614  0.33691  1
 O  O5  1  0.81298  0.43386  0.33691  1
 O  O6  1  0.94693  0.75000  0.13240  1
 O  O7  1  0.41465  0.25000  0.42688  1
 O  O8  1  0.18702  0.93386  0.66309  1
 O  O9  1  0.81553  0.25000  0.58033  1
 O  O10  1  0.18702  0.56614  0.66309  1
 O  O11  1  0.18447  0.75000  0.41967  1
 O  O12  1  0.47235  0.25000  0.82484  1
 O  O13  1  0.58535  0.75000  0.57312  1
 O  O14  1  0.67127  0.75000  0.94116  1
 P  P1  1  0.28424  0.75000  0.58051  1
 P  P2  1  0.71576  0.25000  0.41949  1
