CIF file written using JARVIS-Tools package.
data_Ti2FeS4
_symmetry_space_group_name_H-M  'C2/m'
_cell_length_a       3.37349
_cell_length_b       5.91086
_cell_length_c       6.62007
_cell_angle_alpha    116.332
_cell_angle_beta     104.761
_cell_angle_gamma    90.0001

_symmetry_Int_Tables_number  12
_chemical_formula_structural  Ti2FeS4
_chemical_formula_sum  Ti2FeS4
_cell_volume  113.4268851334007
_cell_formula_units_Z  1
loop_
  _symmetry_equiv_pos_site_id
 _symmetry_equiv_pos_as_xyz
 1  'x, y, z'
loop_
 _atom_site_type_symbol
 _atom_site_label
 _atom_site_symmetry_multiplicity
 _atom_site_fract_x
 _atom_site_fract_y
 _atom_site_fract_z
 _atom_site_fract_occupancy
 Fe  Fe1  1  0.00000  0.00000  0.00000  1
 S  S1  1  0.88227  0.20921  0.76454  1
 S  S2  1  0.11773  0.79079  0.23546  1
 S  S3  1  0.37649  0.71015  0.75297  1
 S  S4  1  0.62351  0.28985  0.24703  1
 Ti  Ti1  1  0.25570  0.24563  0.51140  1
 Ti  Ti2  1  0.74430  0.75437  0.48860  1
