CIF file written using JARVIS-Tools package.
data_MgCrF5
_symmetry_space_group_name_H-M  'C2/c'
_cell_length_a       5.20581
_cell_length_b       5.20581
_cell_length_c       7.32063
_cell_angle_alpha    97.4923
_cell_angle_beta     111.335
_cell_angle_gamma    107.759

_symmetry_Int_Tables_number  15
_chemical_formula_structural  MgCrF5
_chemical_formula_sum  Mg2Cr2F0
_cell_volume  169.35067872131313
_cell_formula_units_Z  2
loop_
  _symmetry_equiv_pos_site_id
 _symmetry_equiv_pos_as_xyz
 1  'x, y, z'
loop_
 _atom_site_type_symbol
 _atom_site_label
 _atom_site_symmetry_multiplicity
 _atom_site_fract_x
 _atom_site_fract_y
 _atom_site_fract_z
 _atom_site_fract_occupancy
 Cr  Cr1  1  0.00000  0.00000  0.00000  1
 Cr  Cr2  1  0.50000  0.00000  0.50000  1
 F  F1  1  0.36311  0.11311  0.25000  1
 F  F2  1  0.63689  0.88689  0.75000  1
 F  F3  1  0.56842  0.71062  0.36444  1
 F  F4  1  0.84618  0.20398  0.13556  1
 F  F5  1  0.76136  0.67253  0.04146  1
 F  F6  1  0.13107  0.71990  0.45854  1
 F  F7  1  0.23864  0.32747  0.95854  1
 F  F8  1  0.86893  0.28010  0.54146  1
 F  F9  1  0.15382  0.79602  0.86444  1
 F  F10  1  0.43158  0.28938  0.63556  1
 Mg  Mg1  1  0.27990  0.52990  0.75000  1
 Mg  Mg2  1  0.72010  0.47010  0.25000  1
