CIF file written using JARVIS-Tools package.
data_CaSnO2
_symmetry_space_group_name_H-M  'C2/m'
_cell_length_a       3.23346
_cell_length_b       8.56964
_cell_length_c       9.59142
_cell_angle_alpha    80.7158
_cell_angle_beta     89.8991
_cell_angle_gamma    79.1346

_symmetry_Int_Tables_number  12
_chemical_formula_structural  CaSnO2
_chemical_formula_sum  Ca4Sn4O8
_cell_volume  257.4775204830691
_cell_formula_units_Z  4
loop_
  _symmetry_equiv_pos_site_id
 _symmetry_equiv_pos_as_xyz
 1  'x, y, z'
loop_
 _atom_site_type_symbol
 _atom_site_label
 _atom_site_symmetry_multiplicity
 _atom_site_fract_x
 _atom_site_fract_y
 _atom_site_fract_z
 _atom_site_fract_occupancy
 Ca  Ca1  1  0.79182  0.93042  0.68674  1
 Ca  Ca2  1  0.21233  0.08966  0.28504  1
 Ca  Ca3  1  0.16705  0.17991  0.91832  1
 Ca  Ca4  1  0.83710  0.84017  0.05346  1
 O  O1  1  0.61979  0.27490  0.33642  1
 O  O2  1  0.41691  0.67983  0.19142  1
 O  O3  1  0.58724  0.34026  0.78039  1
 O  O4  1  0.38437  0.74518  0.63538  1
 O  O5  1  0.82049  0.87366  0.38130  1
 O  O6  1  0.29799  0.91921  0.87765  1
 O  O7  1  0.18366  0.14642  0.59051  1
 O  O8  1  0.70616  0.10086  0.09414  1
 Sn  Sn1  1  0.40694  0.70028  0.42057  1
 Sn  Sn2  1  0.46556  0.58123  0.82561  1
 Sn  Sn3  1  0.53859  0.43886  0.14620  1
 Sn  Sn4  1  0.59721  0.31981  0.55123  1
