CIF file written using JARVIS-Tools package.
data_IrN2
_symmetry_space_group_name_H-M  'P2_1/c'
_cell_length_a       4.88255
_cell_length_b       4.93691
_cell_length_c       4.92126
_cell_angle_alpha    90
_cell_angle_beta     107.973
_cell_angle_gamma    90

_symmetry_Int_Tables_number  14
_chemical_formula_structural  IrN2
_chemical_formula_sum  Ir4N8
_cell_volume  112.83682316562034
_cell_formula_units_Z  4
loop_
  _symmetry_equiv_pos_site_id
 _symmetry_equiv_pos_as_xyz
 1  'x, y, z'
loop_
 _atom_site_type_symbol
 _atom_site_label
 _atom_site_symmetry_multiplicity
 _atom_site_fract_x
 _atom_site_fract_y
 _atom_site_fract_z
 _atom_site_fract_occupancy
 Ir  Ir1  1  0.23340  0.49980  0.72079  1
 Ir  Ir2  1  0.76660  0.99980  0.77921  1
 Ir  Ir3  1  0.76660  0.50020  0.27921  1
 Ir  Ir4  1  0.23340  0.00020  0.22079  1
 N  N1  1  0.32470  0.91368  0.65906  1
 N  N2  1  0.67530  0.41368  0.84094  1
 N  N3  1  0.67530  0.08632  0.34094  1
 N  N4  1  0.32470  0.58632  0.15906  1
 N  N5  1  0.18579  0.40268  0.29941  1
 N  N6  1  0.81421  0.90268  0.20059  1
 N  N7  1  0.81421  0.59732  0.70059  1
 N  N8  1  0.18579  0.09732  0.79941  1
