CIF file written using JARVIS-Tools package.
data_NaZr2SN2Cl
_symmetry_space_group_name_H-M  'P2_1/c'
_cell_length_a       6.37932
_cell_length_b       7.32331
_cell_length_c       10.154
_cell_angle_alpha    90
_cell_angle_beta     101.793
_cell_angle_gamma    90

_symmetry_Int_Tables_number  14
_chemical_formula_structural  NaZr2SN2Cl
_chemical_formula_sum  Na4Zr8S4N8Cl4
_cell_volume  464.3586125062891
_cell_formula_units_Z  4
loop_
  _symmetry_equiv_pos_site_id
 _symmetry_equiv_pos_as_xyz
 1  'x, y, z'
loop_
 _atom_site_type_symbol
 _atom_site_label
 _atom_site_symmetry_multiplicity
 _atom_site_fract_x
 _atom_site_fract_y
 _atom_site_fract_z
 _atom_site_fract_occupancy
 Cl  Cl1  1  0.86413  0.12996  0.83026  1
 Cl  Cl2  1  0.63587  0.62996  0.16974  1
 Cl  Cl3  1  0.13587  0.87004  0.16974  1
 Cl  Cl4  1  0.36413  0.37004  0.83026  1
 N  N1  1  0.62759  0.88592  0.58736  1
 N  N2  1  0.09744  0.13362  0.58825  1
 N  N3  1  0.59744  0.36638  0.58825  1
 N  N4  1  0.12759  0.61408  0.58736  1
 N  N5  1  0.37241  0.11408  0.41264  1
 N  N6  1  0.87241  0.38592  0.41264  1
 N  N7  1  0.40256  0.63362  0.41175  1
 N  N8  1  0.90256  0.86638  0.41175  1
 Na  Na1  1  0.73826  0.87596  0.99246  1
 Na  Na2  1  0.26174  0.12404  0.00754  1
 Na  Na3  1  0.76174  0.37596  0.00754  1
 Na  Na4  1  0.23826  0.62404  0.99246  1
 S  S1  1  0.85332  0.62286  0.81020  1
 S  S2  1  0.35332  0.87714  0.81020  1
 S  S3  1  0.64668  0.12286  0.18980  1
 S  S4  1  0.14668  0.37714  0.18980  1
 Zr  Zr1  1  0.02703  0.13314  0.36725  1
 Zr  Zr2  1  0.97297  0.86686  0.63275  1
 Zr  Zr3  1  0.52703  0.36686  0.36725  1
 Zr  Zr4  1  0.44576  0.11924  0.62734  1
 Zr  Zr5  1  0.05424  0.61924  0.37266  1
 Zr  Zr6  1  0.94576  0.38076  0.62734  1
 Zr  Zr7  1  0.55424  0.88076  0.37266  1
 Zr  Zr8  1  0.47297  0.63314  0.63275  1
