CIF file written using JARVIS-Tools package.
data_CaTaAlO5
_symmetry_space_group_name_H-M  'C2/c'
_cell_length_a       5.62667
_cell_length_b       5.62667
_cell_length_c       7.40853
_cell_angle_alpha    104.217
_cell_angle_beta     104.217
_cell_angle_gamma    106.439

_symmetry_Int_Tables_number  15
_chemical_formula_structural  CaTaAlO5
_chemical_formula_sum  Ca2Ta2Al2O0
_cell_volume  205.16729070979594
_cell_formula_units_Z  2
loop_
  _symmetry_equiv_pos_site_id
 _symmetry_equiv_pos_as_xyz
 1  'x, y, z'
loop_
 _atom_site_type_symbol
 _atom_site_label
 _atom_site_symmetry_multiplicity
 _atom_site_fract_x
 _atom_site_fract_y
 _atom_site_fract_z
 _atom_site_fract_occupancy
 Al  Al1  1  0.68344  0.31656  0.75000  1
 Al  Al2  1  0.31656  0.68344  0.25000  1
 Ca  Ca1  1  0.33282  0.66718  0.75000  1
 Ca  Ca2  1  0.66718  0.33282  0.25000  1
 O  O1  1  0.07538  0.92462  0.75000  1
 O  O2  1  0.92462  0.07538  0.25000  1
 O  O3  1  0.09783  0.69110  0.38639  1
 O  O4  1  0.30890  0.90217  0.11361  1
 O  O5  1  0.90217  0.30890  0.61361  1
 O  O6  1  0.69110  0.09783  0.88639  1
 O  O7  1  0.36788  0.25153  0.58503  1
 O  O8  1  0.74847  0.63212  0.91497  1
 O  O9  1  0.63212  0.74847  0.41497  1
 O  O10  1  0.25153  0.36788  0.08503  1
 Ta  Ta1  1  0.00000  0.00000  0.00000  1
 Ta  Ta2  1  0.00000  0.00000  0.50000  1
