CIF file written using JARVIS-Tools package.
data_K2SiP2
_symmetry_space_group_name_H-M  'Ibam'
_cell_length_a       6.14154
_cell_length_b       6.8253
_cell_length_c       7.92676
_cell_angle_alpha    115.501
_cell_angle_beta     112.792
_cell_angle_gamma    90.0001

_symmetry_Int_Tables_number  72
_chemical_formula_structural  K2SiP2
_chemical_formula_sum  K4Si2P4
_cell_volume  270.87356010659386
_cell_formula_units_Z  2
loop_
  _symmetry_equiv_pos_site_id
 _symmetry_equiv_pos_as_xyz
 1  'x, y, z'
loop_
 _atom_site_type_symbol
 _atom_site_label
 _atom_site_symmetry_multiplicity
 _atom_site_fract_x
 _atom_site_fract_y
 _atom_site_fract_z
 _atom_site_fract_occupancy
 K  K1  1  0.14640  0.98779  0.29279  1
 K  K2  1  0.85360  0.01221  0.70721  1
 K  K3  1  0.35360  0.69500  0.70721  1
 K  K4  1  0.64640  0.30500  0.29279  1
 P  P1  1  0.59784  0.76528  0.19568  1
 P  P2  1  0.90216  0.56960  0.80432  1
 P  P3  1  0.09784  0.43040  0.19568  1
 P  P4  1  0.40216  0.23472  0.80432  1
 Si  Si1  1  0.75000  0.50000  -0.00000  1
 Si  Si2  1  0.25000  0.50000  -0.00000  1
