CIF file written using JARVIS-Tools package.
data_CaMn2F10
_symmetry_space_group_name_H-M  'C2'
_cell_length_a       5.42951
_cell_length_b       5.42951
_cell_length_c       7.46036
_cell_angle_alpha    96.541
_cell_angle_beta     113.512
_cell_angle_gamma    107.177

_symmetry_Int_Tables_number  5
_chemical_formula_structural  CaMn2F10
_chemical_formula_sum  CaMn2F0
_cell_volume  185.81221085593927
_cell_formula_units_Z  1
loop_
  _symmetry_equiv_pos_site_id
 _symmetry_equiv_pos_as_xyz
 1  'x, y, z'
loop_
 _atom_site_type_symbol
 _atom_site_label
 _atom_site_symmetry_multiplicity
 _atom_site_fract_x
 _atom_site_fract_y
 _atom_site_fract_z
 _atom_site_fract_occupancy
 Ca  Ca1  1  0.28879  0.53879  0.75000  1
 F  F1  1  0.33102  0.08102  0.25000  1
 F  F2  1  0.66957  0.91957  0.75000  1
 F  F3  1  0.54911  0.72433  0.37431  1
 F  F4  1  0.85002  0.17480  0.12569  1
 F  F5  1  0.78670  0.69271  0.02229  1
 F  F6  1  0.17041  0.76441  0.47771  1
 F  F7  1  0.18618  0.31650  0.96528  1
 F  F8  1  0.85123  0.22090  0.53472  1
 F  F9  1  0.15037  0.83625  0.87610  1
 F  F10  1  0.46015  0.27427  0.62390  1
 Mn  Mn1  1  -0.00034  0.00841  0.00780  1
 Mn  Mn2  1  0.50061  0.99187  0.49220  1
