CIF file written using JARVIS-Tools package.
data_ThBr4
_symmetry_space_group_name_H-M  'I4_1/amd'
_cell_length_a       7.50623
_cell_length_b       7.50624
_cell_length_c       7.50624
_cell_angle_alpha    106.355
_cell_angle_beta     106.355
_cell_angle_gamma    115.902

_symmetry_Int_Tables_number  141
_chemical_formula_structural  ThBr4
_chemical_formula_sum  Th2Br8
_cell_volume  322.45976392498187
_cell_formula_units_Z  2
loop_
  _symmetry_equiv_pos_site_id
 _symmetry_equiv_pos_as_xyz
 1  'x, y, z'
loop_
 _atom_site_type_symbol
 _atom_site_label
 _atom_site_symmetry_multiplicity
 _atom_site_fract_x
 _atom_site_fract_y
 _atom_site_fract_z
 _atom_site_fract_occupancy
 Br  Br1  1  0.20320  0.26623  0.56302  1
 Br  Br2  1  0.64018  0.20320  0.43698  1
 Br  Br3  1  0.35982  0.79680  0.56302  1
 Br  Br4  1  0.79680  0.73377  0.43698  1
 Br  Br5  1  0.79680  0.35982  0.06302  1
 Br  Br6  1  0.73377  0.79680  0.93698  1
 Br  Br7  1  0.20320  0.64018  0.93698  1
 Br  Br8  1  0.26623  0.20320  0.06302  1
 Th  Th1  1  0.87500  0.12500  0.75000  1
 Th  Th2  1  0.12500  0.87500  0.25000  1
