CIF file written using JARVIS-Tools package.
data_YAsO4
_symmetry_space_group_name_H-M  'I4_1/amd'
_cell_length_a       5.94884
_cell_length_b       5.94884
_cell_length_c       5.94884
_cell_angle_alpha    106.691
_cell_angle_beta     106.691
_cell_angle_gamma    115.188

_symmetry_Int_Tables_number  141
_chemical_formula_structural  YAsO4
_chemical_formula_sum  Y2As2O8
_cell_volume  160.83754672629448
_cell_formula_units_Z  2
loop_
  _symmetry_equiv_pos_site_id
 _symmetry_equiv_pos_as_xyz
 1  'x, y, z'
loop_
 _atom_site_type_symbol
 _atom_site_label
 _atom_site_symmetry_multiplicity
 _atom_site_fract_x
 _atom_site_fract_y
 _atom_site_fract_z
 _atom_site_fract_occupancy
 As  As1  1  0.87500  0.12500  0.75000  1
 As  As2  1  0.12500  0.87500  0.25000  1
 O  O1  1  0.30170  0.23404  0.43235  1
 O  O2  1  0.86935  0.30170  0.56765  1
 O  O3  1  0.23404  0.30170  0.93235  1
 O  O4  1  0.30170  0.86935  0.06765  1
 O  O5  1  0.13065  0.69830  0.43235  1
 O  O6  1  0.69830  0.76596  0.56765  1
 O  O7  1  0.69830  0.13065  0.93235  1
 O  O8  1  0.76596  0.69830  0.06765  1
 Y  Y1  1  0.37500  0.62500  0.75000  1
 Y  Y2  1  0.62500  0.37500  0.25000  1
