CIF file written using JARVIS-Tools package.
data_Zn2Cr3O8
_symmetry_space_group_name_H-M  'C2/m'
_cell_length_a       4.98905
_cell_length_b       5.85832
_cell_length_c       6.42126
_cell_angle_alpha    117.14
_cell_angle_beta     119.234
_cell_angle_gamma    90

_symmetry_Int_Tables_number  12
_chemical_formula_structural  Zn2Cr3O8
_chemical_formula_sum  Zn2Cr3O8
_cell_volume  139.61556585111856
_cell_formula_units_Z  1
loop_
  _symmetry_equiv_pos_site_id
 _symmetry_equiv_pos_as_xyz
 1  'x, y, z'
loop_
 _atom_site_type_symbol
 _atom_site_label
 _atom_site_symmetry_multiplicity
 _atom_site_fract_x
 _atom_site_fract_y
 _atom_site_fract_z
 _atom_site_fract_occupancy
 Cr  Cr1  1  0.50000  1.00000  -0.00000  1
 Cr  Cr2  1  1.00000  0.73801  -0.00000  1
 Cr  Cr3  1  1.00000  0.26199  0.00000  1
 O  O1  1  -0.00416  0.38962  0.77924  1
 O  O2  1  0.00416  0.61038  0.22076  1
 O  O3  1  0.02884  0.89126  0.78253  1
 O  O4  1  0.97116  0.10873  0.21747  1
 O  O5  1  0.44838  0.33416  0.20582  1
 O  O6  1  0.44838  0.87165  0.20582  1
 O  O7  1  0.55162  0.12835  0.79418  1
 O  O8  1  0.55162  0.66584  0.79418  1
 Zn  Zn1  1  0.72594  0.68816  0.37631  1
 Zn  Zn2  1  0.27406  0.31184  0.62369  1
