CIF file written using JARVIS-Tools package.
data_SrIn2Ir
_symmetry_space_group_name_H-M  'Cmcm'
_cell_length_a       4.32382
_cell_length_b       5.93604
_cell_length_c       8.17614
_cell_angle_alpha    90
_cell_angle_beta     90
_cell_angle_gamma    111.358

_symmetry_Int_Tables_number  63
_chemical_formula_structural  SrIn2Ir
_chemical_formula_sum  Sr2In4Ir2
_cell_volume  195.43947114226094
_cell_formula_units_Z  2
loop_
  _symmetry_equiv_pos_site_id
 _symmetry_equiv_pos_as_xyz
 1  'x, y, z'
loop_
 _atom_site_type_symbol
 _atom_site_label
 _atom_site_symmetry_multiplicity
 _atom_site_fract_x
 _atom_site_fract_y
 _atom_site_fract_z
 _atom_site_fract_occupancy
 In  In1  1  0.34824  0.69647  0.94834  1
 In  In2  1  0.34824  0.69647  0.55166  1
 In  In3  1  0.65176  0.30353  0.05166  1
 In  In4  1  0.65176  0.30353  0.44834  1
 Ir  Ir1  1  0.78078  0.56156  0.75000  1
 Ir  Ir2  1  0.21922  0.43844  0.25000  1
 Sr  Sr1  1  0.06239  0.12477  0.75000  1
 Sr  Sr2  1  0.93761  0.87523  0.25000  1
