CIF file written using JARVIS-Tools package.
data_LiBeBO3
_symmetry_space_group_name_H-M  'P-1'
_cell_length_a       4.63984
_cell_length_b       4.69829
_cell_length_c       5.85067
_cell_angle_alpha    68.1614
_cell_angle_beta     71.7725
_cell_angle_gamma    61.1188

_symmetry_Int_Tables_number  2
_chemical_formula_structural  LiBeBO3
_chemical_formula_sum  Li2Be2B2O6
_cell_volume  102.26326184142239
_cell_formula_units_Z  2
loop_
  _symmetry_equiv_pos_site_id
 _symmetry_equiv_pos_as_xyz
 1  'x, y, z'
loop_
 _atom_site_type_symbol
 _atom_site_label
 _atom_site_symmetry_multiplicity
 _atom_site_fract_x
 _atom_site_fract_y
 _atom_site_fract_z
 _atom_site_fract_occupancy
 B  B1  1  0.07215  0.40301  0.76723  1
 B  B2  1  0.92785  0.59699  0.23277  1
 Be  Be1  1  0.36005  0.72730  0.84173  1
 Be  Be2  1  0.63995  0.27270  0.15827  1
 Li  Li1  1  0.74570  0.12796  0.66342  1
 Li  Li2  1  0.25430  0.87204  0.33658  1
 O  O1  1  0.33270  0.09976  0.75952  1
 O  O2  1  0.66730  0.90024  0.24048  1
 O  O3  1  0.12480  0.69048  0.70655  1
 O  O4  1  0.87520  0.30952  0.29345  1
 O  O5  1  0.74480  0.42238  0.83796  1
 O  O6  1  0.25520  0.57762  0.16204  1
