CIF file written using JARVIS-Tools package.
data_Sc4C3
_symmetry_space_group_name_H-M  'I-43d'
_cell_length_a       6.23039
_cell_length_b       6.2304
_cell_length_c       6.2304
_cell_angle_alpha    109.471
_cell_angle_beta     109.471
_cell_angle_gamma    109.471

_symmetry_Int_Tables_number  220
_chemical_formula_structural  Sc4C3
_chemical_formula_sum  Sc8C6
_cell_volume  186.17655306992017
_cell_formula_units_Z  2
loop_
  _symmetry_equiv_pos_site_id
 _symmetry_equiv_pos_as_xyz
 1  'x, y, z'
loop_
 _atom_site_type_symbol
 _atom_site_label
 _atom_site_symmetry_multiplicity
 _atom_site_fract_x
 _atom_site_fract_y
 _atom_site_fract_z
 _atom_site_fract_occupancy
 C  C1  1  0.75000  0.87500  0.12500  1
 C  C2  1  0.62500  0.37500  0.25000  1
 C  C3  1  0.87500  0.12500  0.75000  1
 C  C4  1  0.12500  0.75000  0.87500  1
 C  C5  1  0.37500  0.25000  0.62500  1
 C  C6  1  0.25000  0.62500  0.37500  1
 Sc  Sc1  1  0.39948  0.50000  -0.00000  1
 Sc  Sc2  1  0.60052  0.60052  0.60052  1
 Sc  Sc3  1  0.50000  0.00000  0.39948  1
 Sc  Sc4  1  -0.00000  0.39948  0.50000  1
 Sc  Sc5  1  0.50000  0.00000  0.89948  1
 Sc  Sc6  1  -0.00000  0.89948  0.50000  1
 Sc  Sc7  1  0.89948  0.50000  -0.00000  1
 Sc  Sc8  1  0.10052  0.10052  0.10052  1
