CIF file written using JARVIS-Tools package.
data_AgHgSI
_symmetry_space_group_name_H-M  'P2_12_12_1'
_cell_length_a       7.17461
_cell_length_b       7.721
_cell_length_c       8.57053
_cell_angle_alpha    90
_cell_angle_beta     90
_cell_angle_gamma    90

_symmetry_Int_Tables_number  19
_chemical_formula_structural  AgHgSI
_chemical_formula_sum  Ag4Hg4S4I4
_cell_volume  474.7660969773269
_cell_formula_units_Z  4
loop_
  _symmetry_equiv_pos_site_id
 _symmetry_equiv_pos_as_xyz
 1  'x, y, z'
loop_
 _atom_site_type_symbol
 _atom_site_label
 _atom_site_symmetry_multiplicity
 _atom_site_fract_x
 _atom_site_fract_y
 _atom_site_fract_z
 _atom_site_fract_occupancy
 Ag  Ag1  1  0.10977  0.17528  0.39407  1
 Ag  Ag2  1  0.60977  0.32472  0.60593  1
 Ag  Ag3  1  0.39023  0.82472  0.89407  1
 Ag  Ag4  1  0.89023  0.67528  0.10593  1
 Hg  Hg1  1  0.24668  0.27430  0.98195  1
 Hg  Hg2  1  0.25332  0.72570  0.48195  1
 Hg  Hg3  1  0.75332  0.77430  0.51805  1
 Hg  Hg4  1  0.74668  0.22570  0.01805  1
 I  I1  1  -0.00947  0.88180  0.85273  1
 I  I2  1  0.49053  0.61820  0.14727  1
 I  I3  1  0.50947  0.11820  0.35273  1
 I  I4  1  0.00947  0.38180  0.64727  1
 S  S1  1  -0.00011  0.36217  0.15469  1
 S  S2  1  0.50011  0.63783  0.65469  1
 S  S3  1  0.00011  0.86217  0.34531  1
 S  S4  1  0.49989  0.13783  0.84531  1
