CIF file written using JARVIS-Tools package.
data_ZnFeO2
_symmetry_space_group_name_H-M  'P-1'
_cell_length_a       3.03849
_cell_length_b       7.83065
_cell_length_c       8.0807
_cell_angle_alpha    89.5667
_cell_angle_beta     95.0811
_cell_angle_gamma    90.7099

_symmetry_Int_Tables_number  2
_chemical_formula_structural  ZnFeO2
_chemical_formula_sum  Zn4Fe4O8
_cell_volume  191.49255811807004
_cell_formula_units_Z  4
loop_
  _symmetry_equiv_pos_site_id
 _symmetry_equiv_pos_as_xyz
 1  'x, y, z'
loop_
 _atom_site_type_symbol
 _atom_site_label
 _atom_site_symmetry_multiplicity
 _atom_site_fract_x
 _atom_site_fract_y
 _atom_site_fract_z
 _atom_site_fract_occupancy
 Fe  Fe1  1  0.01628  0.31016  0.40881  1
 Fe  Fe2  1  0.70971  0.40160  0.73445  1
 Fe  Fe3  1  0.26607  0.57832  0.23735  1
 Fe  Fe4  1  -0.04052  0.66975  0.56298  1
 O  O1  1  0.43607  0.73782  0.42567  1
 O  O2  1  0.74186  0.39375  0.18832  1
 O  O3  1  0.23391  0.58617  0.78348  1
 O  O4  1  0.53970  0.24209  0.54613  1
 O  O5  1  0.12845  0.08427  0.25666  1
 O  O6  1  0.21268  0.25053  0.84402  1
 O  O7  1  0.84732  0.89565  0.71513  1
 O  O8  1  0.76308  0.72939  0.12778  1
 Zn  Zn1  1  0.35096  0.05206  0.70352  1
 Zn  Zn2  1  0.62482  0.92785  0.26829  1
 Zn  Zn3  1  0.76977  0.73646  0.89603  1
 Zn  Zn4  1  0.20597  0.24346  0.07577  1
