CIF file written using JARVIS-Tools package.
data_KBa4Bi3O
_symmetry_space_group_name_H-M  'I4/mcm'
_cell_length_a       9.03586
_cell_length_b       9.03586
_cell_length_c       10.577
_cell_angle_alpha    115.287
_cell_angle_beta     115.287
_cell_angle_gamma    90

_symmetry_Int_Tables_number  140
_chemical_formula_structural  KBa4Bi3O
_chemical_formula_sum  K2Ba8Bi6O2
_cell_volume  688.2113551367863
_cell_formula_units_Z  2
loop_
  _symmetry_equiv_pos_site_id
 _symmetry_equiv_pos_as_xyz
 1  'x, y, z'
loop_
 _atom_site_type_symbol
 _atom_site_label
 _atom_site_symmetry_multiplicity
 _atom_site_fract_x
 _atom_site_fract_y
 _atom_site_fract_z
 _atom_site_fract_occupancy
 Ba  Ba1  1  0.49777  0.31199  0.30976  1
 Ba  Ba2  1  0.50223  0.68801  0.69024  1
 Ba  Ba3  1  0.00223  0.50223  0.69024  1
 Ba  Ba4  1  0.18801  0.00223  0.69024  1
 Ba  Ba5  1  0.68801  0.18801  0.69024  1
 Ba  Ba6  1  -0.00223  0.49777  0.30976  1
 Ba  Ba7  1  0.31199  0.81199  0.30976  1
 Ba  Ba8  1  0.81199  -0.00223  0.30976  1
 Bi  Bi1  1  0.12189  0.37811  -0.00000  1
 Bi  Bi2  1  0.62189  0.12189  -0.00000  1
 Bi  Bi3  1  0.75000  0.75000  0.50000  1
 Bi  Bi4  1  0.25000  0.25000  0.50000  1
 Bi  Bi5  1  0.37811  0.87811  0.00000  1
 Bi  Bi6  1  0.87811  0.62189  0.00000  1
 K  K1  1  0.00000  0.00000  0.00000  1
 K  K2  1  0.50000  0.50000  0.00000  1
 O  O1  1  0.25000  0.75000  0.50000  1
 O  O2  1  0.75000  0.25000  0.50000  1
