CIF file written using JARVIS-Tools package.
data_SbClO2F6
_symmetry_space_group_name_H-M  'P2/c'
_cell_length_a       5.7376
_cell_length_b       7.0931
_cell_length_c       7.12854
_cell_angle_alpha    87.1879
_cell_angle_beta     90
_cell_angle_gamma    90

_symmetry_Int_Tables_number  13
_chemical_formula_structural  SbClO2F6
_chemical_formula_sum  Sb2Cl2O4F2
_cell_volume  289.76335186870074
_cell_formula_units_Z  2
loop_
  _symmetry_equiv_pos_site_id
 _symmetry_equiv_pos_as_xyz
 1  'x, y, z'
loop_
 _atom_site_type_symbol
 _atom_site_label
 _atom_site_symmetry_multiplicity
 _atom_site_fract_x
 _atom_site_fract_y
 _atom_site_fract_z
 _atom_site_fract_occupancy
 Cl  Cl1  1  0.62919  0.25000  0.25000  1
 Cl  Cl2  1  0.37081  0.75000  0.75000  1
 F  F1  1  0.00122  0.78965  0.51378  1
 F  F2  1  0.76271  0.44230  0.71051  1
 F  F3  1  0.23729  0.55770  0.28949  1
 F  F4  1  0.00122  0.71035  -0.01378  1
 F  F5  1  0.76271  0.05770  0.78949  1
 F  F6  1  0.24320  0.43324  0.71201  1
 F  F7  1  0.75680  0.56676  0.28799  1
 F  F8  1  -0.00122  0.28965  0.01378  1
 F  F9  1  0.23729  0.94230  0.21051  1
 F  F10  1  -0.00122  0.21035  0.48622  1
 F  F11  1  0.75680  0.93324  0.21201  1
 F  F12  1  0.24320  0.06676  0.78799  1
 O  O1  1  0.49978  0.78097  0.58128  1
 O  O2  1  0.50022  0.28097  0.08128  1
 O  O3  1  0.50022  0.21903  0.41872  1
 O  O4  1  0.49978  0.71903  0.91872  1
 Sb  Sb1  1  0.00781  0.75000  0.25000  1
 Sb  Sb2  1  -0.00781  0.25000  0.75000  1
