CIF file written using JARVIS-Tools package.
data_Pr2Br5
_symmetry_space_group_name_H-M  'P2_1/m'
_cell_length_a       7.80627
_cell_length_b       4.18909
_cell_length_c       13.3982
_cell_angle_alpha    90
_cell_angle_beta     88.5598
_cell_angle_gamma    90

_symmetry_Int_Tables_number  11
_chemical_formula_structural  Pr2Br5
_chemical_formula_sum  Pr4Br0
_cell_volume  437.9990608487071
_cell_formula_units_Z  2
loop_
  _symmetry_equiv_pos_site_id
 _symmetry_equiv_pos_as_xyz
 1  'x, y, z'
loop_
 _atom_site_type_symbol
 _atom_site_label
 _atom_site_symmetry_multiplicity
 _atom_site_fract_x
 _atom_site_fract_y
 _atom_site_fract_z
 _atom_site_fract_occupancy
 Br  Br1  1  0.67299  0.75000  0.27021  1
 Br  Br2  1  0.32701  0.25000  0.72979  1
 Br  Br3  1  0.15386  0.75000  0.93147  1
 Br  Br4  1  0.84614  0.25000  0.06853  1
 Br  Br5  1  0.69491  0.25000  0.50977  1
 Br  Br6  1  0.30509  0.75000  0.49023  1
 Br  Br7  1  0.04478  0.25000  0.32381  1
 Br  Br8  1  0.95522  0.75000  0.67619  1
 Br  Br9  1  0.35105  0.25000  0.12038  1
 Br  Br10  1  0.64895  0.75000  0.87962  1
 Pr  Pr1  1  0.07262  0.75000  0.16076  1
 Pr  Pr2  1  0.92738  0.25000  0.83924  1
 Pr  Pr3  1  0.57327  0.75000  0.65859  1
 Pr  Pr4  1  0.42673  0.25000  0.34141  1
