CIF file written using JARVIS-Tools package.
data_NbW3Se8
_symmetry_space_group_name_H-M  'Imm2'
_cell_length_a       13.5178
_cell_length_b       13.5178
_cell_length_c       13.5177
_cell_angle_alpha    165.682
_cell_angle_beta     28.8797
_cell_angle_gamma    155.053

_symmetry_Int_Tables_number  44
_chemical_formula_structural  NbW3Se8
_chemical_formula_sum  NbW3Se8
_cell_volume  257.5531536178935
_cell_formula_units_Z  1
loop_
  _symmetry_equiv_pos_site_id
 _symmetry_equiv_pos_as_xyz
 1  'x, y, z'
loop_
 _atom_site_type_symbol
 _atom_site_label
 _atom_site_symmetry_multiplicity
 _atom_site_fract_x
 _atom_site_fract_y
 _atom_site_fract_z
 _atom_site_fract_occupancy
 Nb  Nb1  1  0.04945  0.67448  0.37503  1
 Se  Se1  1  0.64056  0.32897  0.31160  1
 Se  Se2  1  0.22805  0.66667  0.56134  1
 Se  Se3  1  0.35544  0.66678  0.68859  1
 Se  Se4  1  0.76738  0.32902  0.43845  1
 Se  Se5  1  0.14637  0.33729  0.80906  1
 Se  Se6  1  0.72820  0.66681  0.06135  1
 Se  Se7  1  0.85532  0.66664  0.18860  1
 Se  Se8  1  0.27823  0.33736  0.94099  1
 W  W1  1  0.45844  0.33344  0.12496  1
 W  W2  1  0.53408  0.65911  0.87503  1
 W  W3  1  0.95847  0.33344  0.62499  1
