CIF file written using JARVIS-Tools package.
data_XeF4
_symmetry_space_group_name_H-M  'P2_1/c'
_cell_length_a       5.00874
_cell_length_b       5.77721
_cell_length_c       6.9734
_cell_angle_alpha    90
_cell_angle_beta     124.595
_cell_angle_gamma    90

_symmetry_Int_Tables_number  14
_chemical_formula_structural  XeF4
_chemical_formula_sum  Xe2F8
_cell_volume  166.10833330120644
_cell_formula_units_Z  2
loop_
  _symmetry_equiv_pos_site_id
 _symmetry_equiv_pos_as_xyz
 1  'x, y, z'
loop_
 _atom_site_type_symbol
 _atom_site_label
 _atom_site_symmetry_multiplicity
 _atom_site_fract_x
 _atom_site_fract_y
 _atom_site_fract_z
 _atom_site_fract_occupancy
 F  F1  1  0.44462  0.34680  0.65203  1
 F  F2  1  0.55538  0.84680  0.84797  1
 F  F3  1  0.07434  0.97619  0.32063  1
 F  F4  1  0.92566  0.47619  0.17937  1
 F  F5  1  0.92566  0.02381  0.67937  1
 F  F6  1  0.07434  0.52381  0.82063  1
 F  F7  1  0.44462  0.15320  0.15203  1
 F  F8  1  0.55538  0.65320  0.34797  1
 Xe  Xe1  1  -0.00000  0.50000  0.50000  1
 Xe  Xe2  1  0.00000  0.00000  0.00000  1
