CIF file written using JARVIS-Tools package.
data_CdSb6S8I4
_symmetry_space_group_name_H-M  'P-1'
_cell_length_a       7.43206
_cell_length_b       8.92073
_cell_length_c       8.96031
_cell_angle_alpha    91.18
_cell_angle_beta     70.6762
_cell_angle_gamma    84.1152

_symmetry_Int_Tables_number  2
_chemical_formula_structural  CdSb6S8I4
_chemical_formula_sum  CdSb6S8I4
_cell_volume  556.700081803408
_cell_formula_units_Z  1
loop_
  _symmetry_equiv_pos_site_id
 _symmetry_equiv_pos_as_xyz
 1  'x, y, z'
loop_
 _atom_site_type_symbol
 _atom_site_label
 _atom_site_symmetry_multiplicity
 _atom_site_fract_x
 _atom_site_fract_y
 _atom_site_fract_z
 _atom_site_fract_occupancy
 Cd  Cd1  1  0.00000  0.00000  0.00000  1
 I  I1  1  0.35306  0.33195  0.15408  1
 I  I2  1  0.64694  0.66805  0.84592  1
 I  I3  1  0.64892  0.28755  0.46356  1
 I  I4  1  0.35108  0.71245  0.53644  1
 S  S1  1  0.09095  0.98961  0.27649  1
 S  S2  1  0.33829  0.06877  0.80717  1
 S  S3  1  0.09588  0.35836  0.60943  1
 S  S4  1  0.91426  0.31280  0.02234  1
 S  S5  1  0.08574  0.68720  0.97766  1
 S  S6  1  0.66171  0.93123  0.19283  1
 S  S7  1  0.90905  0.01039  0.72351  1
 S  S8  1  0.90412  0.64164  0.39057  1
 Sb  Sb1  1  0.77639  0.29884  0.79018  1
 Sb  Sb2  1  0.76081  0.93395  0.44456  1
 Sb  Sb3  1  0.75281  0.64283  0.15296  1
 Sb  Sb4  1  0.23919  0.06605  0.55544  1
 Sb  Sb5  1  0.24719  0.35717  0.84704  1
 Sb  Sb6  1  0.22361  0.70116  0.20982  1
