CIF file written using JARVIS-Tools package.
data_GePb2S4
_symmetry_space_group_name_H-M  'P2_1/c'
_cell_length_a       7.94748
_cell_length_b       9.21587
_cell_length_c       10.5725
_cell_angle_alpha    90
_cell_angle_beta     108.837
_cell_angle_gamma    90

_symmetry_Int_Tables_number  14
_chemical_formula_structural  GePb2S4
_chemical_formula_sum  Ge4Pb8S6
_cell_volume  732.8903091353974
_cell_formula_units_Z  4
loop_
  _symmetry_equiv_pos_site_id
 _symmetry_equiv_pos_as_xyz
 1  'x, y, z'
loop_
 _atom_site_type_symbol
 _atom_site_label
 _atom_site_symmetry_multiplicity
 _atom_site_fract_x
 _atom_site_fract_y
 _atom_site_fract_z
 _atom_site_fract_occupancy
 Ge  Ge1  1  0.70661  0.81184  0.99445  1
 Ge  Ge2  1  0.79339  0.31184  0.50555  1
 Ge  Ge3  1  0.29339  0.18816  0.00555  1
 Ge  Ge4  1  0.20661  0.68816  0.49445  1
 Pb  Pb1  1  0.69954  0.66857  0.65919  1
 Pb  Pb2  1  0.25210  0.55739  0.85137  1
 Pb  Pb3  1  0.19954  0.83143  0.15919  1
 Pb  Pb4  1  0.30046  0.33143  0.34081  1
 Pb  Pb5  1  0.74790  0.44261  0.14863  1
 Pb  Pb6  1  0.24790  0.05739  0.64863  1
 Pb  Pb7  1  0.80046  0.16857  0.84081  1
 Pb  Pb8  1  0.75210  0.94261  0.35137  1
 S  S1  1  0.03846  0.79863  0.60050  1
 S  S2  1  0.96154  0.20137  0.39950  1
 S  S3  1  0.62791  0.48730  0.37551  1
 S  S4  1  0.12791  0.01270  0.87551  1
 S  S5  1  0.36655  0.86581  0.44604  1
 S  S6  1  0.53846  0.70137  0.10050  1
 S  S7  1  0.43181  0.09369  0.20689  1
 S  S8  1  0.56819  0.90631  0.79311  1
 S  S9  1  0.87209  0.98730  0.12449  1
 S  S10  1  0.93181  0.40631  0.70689  1
 S  S11  1  0.13345  0.36581  0.05396  1
 S  S12  1  0.86655  0.63419  0.94604  1
 S  S13  1  0.06819  0.59369  0.29311  1
 S  S14  1  0.37209  0.51270  0.62449  1
 S  S15  1  0.46154  0.29863  0.89950  1
 S  S16  1  0.63345  0.13419  0.55396  1
