CIF file written using JARVIS-Tools package.
data_SeOF2
_symmetry_space_group_name_H-M  'Pca2_1'
_cell_length_a       5.44729
_cell_length_b       6.08703
_cell_length_c       7.49874
_cell_angle_alpha    90
_cell_angle_beta     90
_cell_angle_gamma    90

_symmetry_Int_Tables_number  29
_chemical_formula_structural  SeOF2
_chemical_formula_sum  Se4O4F8
_cell_volume  248.64188379862526
_cell_formula_units_Z  4
loop_
  _symmetry_equiv_pos_site_id
 _symmetry_equiv_pos_as_xyz
 1  'x, y, z'
loop_
 _atom_site_type_symbol
 _atom_site_label
 _atom_site_symmetry_multiplicity
 _atom_site_fract_x
 _atom_site_fract_y
 _atom_site_fract_z
 _atom_site_fract_occupancy
 F  F1  1  0.12847  0.98303  0.27526  1
 F  F2  1  0.62847  0.98303  0.72474  1
 F  F3  1  0.87153  0.48303  0.72474  1
 F  F4  1  0.37153  0.48303  0.27526  1
 F  F5  1  0.83349  0.69935  0.40201  1
 F  F6  1  0.16651  0.19935  0.59799  1
 F  F7  1  0.66651  0.19935  0.40201  1
 F  F8  1  0.33349  0.69935  0.59799  1
 O  O1  1  0.26735  0.38380  0.90630  1
 O  O2  1  0.23265  0.88380  0.90630  1
 O  O3  1  0.76735  0.38380  0.09370  1
 O  O4  1  0.73265  0.88380  0.09370  1
 Se  Se1  1  0.46018  0.75181  0.81085  1
 Se  Se2  1  0.53982  0.25181  0.18915  1
 Se  Se3  1  0.03982  0.25181  0.81085  1
 Se  Se4  1  0.96018  0.75181  0.18915  1
