CIF file written using JARVIS-Tools package.
data_BaYFe4O7
_symmetry_space_group_name_H-M  'F-43m'
_cell_length_a       6.37616
_cell_length_b       6.37616
_cell_length_c       6.37616
_cell_angle_alpha    60
_cell_angle_beta     60
_cell_angle_gamma    60

_symmetry_Int_Tables_number  216
_chemical_formula_structural  BaYFe4O7
_chemical_formula_sum  BaYFe4O7
_cell_volume  183.300248211557
_cell_formula_units_Z  1
loop_
  _symmetry_equiv_pos_site_id
 _symmetry_equiv_pos_as_xyz
 1  'x, y, z'
loop_
 _atom_site_type_symbol
 _atom_site_label
 _atom_site_symmetry_multiplicity
 _atom_site_fract_x
 _atom_site_fract_y
 _atom_site_fract_z
 _atom_site_fract_occupancy
 Ba  Ba1  1  0.75000  0.75000  0.75000  1
 Fe  Fe1  1  0.37938  0.37938  0.86185  1
 Fe  Fe2  1  0.37938  0.37938  0.37938  1
 Fe  Fe3  1  0.86185  0.37938  0.37938  1
 Fe  Fe4  1  0.37938  0.86185  0.37938  1
 O  O1  1  0.24916  0.24916  0.75084  1
 O  O2  1  0.75084  0.75084  0.24916  1
 O  O3  1  0.75084  0.24916  0.75084  1
 O  O4  1  0.24916  0.75084  0.24916  1
 O  O5  1  0.24916  0.75084  0.75084  1
 O  O6  1  0.75084  0.24916  0.24916  1
 O  O7  1  0.25000  0.25000  0.25000  1
 Y  Y1  1  0.00000  0.00000  0.00000  1
