CIF file written using JARVIS-Tools package.
data_NdH2ClO2
_symmetry_space_group_name_H-M  'P2_1/m'
_cell_length_a       6.22215
_cell_length_b       3.89464
_cell_length_c       6.8386
_cell_angle_alpha    90
_cell_angle_beta     113.15
_cell_angle_gamma    90

_symmetry_Int_Tables_number  11
_chemical_formula_structural  NdH2ClO2
_chemical_formula_sum  Nd2H4Cl2O4
_cell_volume  152.37623923869603
_cell_formula_units_Z  2
loop_
  _symmetry_equiv_pos_site_id
 _symmetry_equiv_pos_as_xyz
 1  'x, y, z'
loop_
 _atom_site_type_symbol
 _atom_site_label
 _atom_site_symmetry_multiplicity
 _atom_site_fract_x
 _atom_site_fract_y
 _atom_site_fract_z
 _atom_site_fract_occupancy
 Cl  Cl1  1  0.75442  0.75000  0.55715  1
 Cl  Cl2  1  0.24558  0.25000  0.44285  1
 H  H1  1  0.29649  0.75000  0.69124  1
 H  H2  1  0.70351  0.25000  0.30876  1
 H  H3  1  0.88617  0.75000  0.22231  1
 H  H4  1  0.11383  0.25000  0.77769  1
 Nd  Nd1  1  0.68844  0.25000  0.86549  1
 Nd  Nd2  1  0.31156  0.75000  0.13451  1
 O  O1  1  0.10072  0.25000  0.91575  1
 O  O2  1  0.89928  0.75000  0.08425  1
 O  O3  1  0.57588  0.25000  0.16763  1
 O  O4  1  0.42412  0.75000  0.83237  1
