CIF file written using JARVIS-Tools package.
data_RbBiF3
_symmetry_space_group_name_H-M  'P-1'
_cell_length_a       5.19329
_cell_length_b       5.21995
_cell_length_c       8.58181
_cell_angle_alpha    97.9444
_cell_angle_beta     57.6279
_cell_angle_gamma    96.8321

_symmetry_Int_Tables_number  2
_chemical_formula_structural  RbBiF3
_chemical_formula_sum  Rb2Bi2F6
_cell_volume  194.31953163226882
_cell_formula_units_Z  2
loop_
  _symmetry_equiv_pos_site_id
 _symmetry_equiv_pos_as_xyz
 1  'x, y, z'
loop_
 _atom_site_type_symbol
 _atom_site_label
 _atom_site_symmetry_multiplicity
 _atom_site_fract_x
 _atom_site_fract_y
 _atom_site_fract_z
 _atom_site_fract_occupancy
 Bi  Bi1  1  0.92499  -0.01570  -0.06428  1
 Bi  Bi2  1  0.57638  0.51475  0.81396  1
 F  F1  1  0.91010  0.53323  0.49880  1
 F  F2  1  0.50266  0.27005  0.04904  1
 F  F3  1  -0.00139  0.22893  0.70065  1
 F  F4  1  0.09811  0.67646  0.04960  1
 F  F5  1  0.59129  -0.03408  0.25092  1
 F  F6  1  0.40330  0.82263  0.70012  1
 Rb  Rb1  1  0.50861  0.49218  0.37369  1
 Rb  Rb2  1  -0.00714  0.00695  0.37597  1
