CIF file written using JARVIS-Tools package.
data_Na4MoN2O2
_symmetry_space_group_name_H-M  'P-1'
_cell_length_a       5.86641
_cell_length_b       5.89459
_cell_length_c       8.86912
_cell_angle_alpha    82.6564
_cell_angle_beta     71.6185
_cell_angle_gamma    68.8005

_symmetry_Int_Tables_number  2
_chemical_formula_structural  Na4MoN2O2
_chemical_formula_sum  Na8Mo2N4O4
_cell_volume  271.3179479850346
_cell_formula_units_Z  2
loop_
  _symmetry_equiv_pos_site_id
 _symmetry_equiv_pos_as_xyz
 1  'x, y, z'
loop_
 _atom_site_type_symbol
 _atom_site_label
 _atom_site_symmetry_multiplicity
 _atom_site_fract_x
 _atom_site_fract_y
 _atom_site_fract_z
 _atom_site_fract_occupancy
 Mo  Mo1  1  0.15929  0.28061  0.23773  1
 Mo  Mo2  1  0.84071  0.71939  0.76227  1
 N  N1  1  0.70484  0.96266  0.63679  1
 N  N2  1  0.84487  0.45694  0.35457  1
 N  N3  1  0.15513  0.54306  0.64543  1
 N  N4  1  0.29516  0.03734  0.36321  1
 Na  Na1  1  0.38807  0.27671  0.81648  1
 Na  Na2  1  0.24125  0.76155  0.98402  1
 Na  Na3  1  0.52113  0.26162  0.44196  1
 Na  Na4  1  0.47887  0.73838  0.55804  1
 Na  Na5  1  0.94561  0.24055  0.59958  1
 Na  Na6  1  0.05439  0.75945  0.40042  1
 Na  Na7  1  0.75875  0.23845  0.01598  1
 Na  Na8  1  0.61193  0.72329  0.18352  1
 O  O1  1  0.36114  0.48459  0.18654  1
 O  O2  1  0.63886  0.51541  0.81346  1
 O  O3  1  0.15136  0.15670  0.05412  1
 O  O4  1  0.84864  0.84330  0.94588  1
