CIF file written using JARVIS-Tools package.
data_Rb2TeO3
_symmetry_space_group_name_H-M  'C2/m'
_cell_length_a       6.47755
_cell_length_b       6.63876
_cell_length_c       7.48028
_cell_angle_alpha    95.0945
_cell_angle_beta     90
_cell_angle_gamma    119.2

_symmetry_Int_Tables_number  12
_chemical_formula_structural  Rb2TeO3
_chemical_formula_sum  Rb4Te2O6
_cell_volume  279.3393870099288
_cell_formula_units_Z  2
loop_
  _symmetry_equiv_pos_site_id
 _symmetry_equiv_pos_as_xyz
 1  'x, y, z'
loop_
 _atom_site_type_symbol
 _atom_site_label
 _atom_site_symmetry_multiplicity
 _atom_site_fract_x
 _atom_site_fract_y
 _atom_site_fract_z
 _atom_site_fract_occupancy
 O  O1  1  0.16652  0.78007  0.21362  1
 O  O2  1  0.38645  0.21993  0.78638  1
 O  O3  1  0.83348  0.21993  0.78638  1
 O  O4  1  0.61355  0.78007  0.21362  1
 O  O5  1  0.81811  0.63623  0.72350  1
 O  O6  1  0.18189  0.36377  0.27650  1
 Rb  Rb1  1  0.00000  0.00000  0.00000  1
 Rb  Rb2  1  0.32079  0.64158  0.86175  1
 Rb  Rb3  1  -0.00000  0.00000  0.50000  1
 Rb  Rb4  1  0.67921  0.35842  0.13825  1
 Te  Te1  1  0.34183  0.68366  0.34880  1
 Te  Te2  1  0.65817  0.31634  0.65120  1
