CIF file written using JARVIS-Tools package.
data_Li5TiAs3
_symmetry_space_group_name_H-M  'C2/c'
_cell_length_a       6.03638
_cell_length_b       7.35299
_cell_length_c       8.46878
_cell_angle_alpha    106.72
_cell_angle_beta     90.0002
_cell_angle_gamma    114.234

_symmetry_Int_Tables_number  15
_chemical_formula_structural  Li5TiAs3
_chemical_formula_sum  Li0Ti2As6
_cell_volume  325.2604693259901
_cell_formula_units_Z  2
loop_
  _symmetry_equiv_pos_site_id
 _symmetry_equiv_pos_as_xyz
 1  'x, y, z'
loop_
 _atom_site_type_symbol
 _atom_site_label
 _atom_site_symmetry_multiplicity
 _atom_site_fract_x
 _atom_site_fract_y
 _atom_site_fract_z
 _atom_site_fract_occupancy
 As  As1  1  0.68573  0.31157  0.82723  1
 As  As2  1  0.00012  0.99961  0.49978  1
 As  As3  1  0.37379  0.68766  0.67233  1
 As  As4  1  0.00013  0.99961  0.99978  1
 As  As5  1  0.31451  0.68766  0.17233  1
 As  As6  1  0.62645  0.31157  0.32724  1
 Li  Li1  1  0.42968  0.34122  0.59567  1
 Li  Li2  1  0.06964  0.65666  0.42398  1
 Li  Li3  1  0.58768  0.65665  0.92396  1
 Li  Li4  1  0.26967  0.99961  0.74978  1
 Li  Li5  1  0.73058  0.99962  0.24977  1
 Li  Li6  1  0.57055  0.65801  0.40389  1
 Li  Li7  1  0.91215  0.34124  0.09568  1
 Li  Li8  1  0.93059  0.34256  0.57558  1
 Li  Li9  1  0.08810  0.65796  0.90388  1
 Li  Li10  1  0.41257  0.34258  0.07560  1
 Ti  Ti1  1  0.76463  0.99961  0.74978  1
 Ti  Ti2  1  0.23562  0.99961  0.24978  1
