CIF file written using JARVIS-Tools package.
data_GaPO4
_symmetry_space_group_name_H-M  'P3_121'
_cell_length_a       4.90801
_cell_length_b       4.90801
_cell_length_c       11.1552
_cell_angle_alpha    90
_cell_angle_beta     90
_cell_angle_gamma    120

_symmetry_Int_Tables_number  152
_chemical_formula_structural  GaPO4
_chemical_formula_sum  Ga3P3O2
_cell_volume  232.7113408623739
_cell_formula_units_Z  3
loop_
  _symmetry_equiv_pos_site_id
 _symmetry_equiv_pos_as_xyz
 1  'x, y, z'
loop_
 _atom_site_type_symbol
 _atom_site_label
 _atom_site_symmetry_multiplicity
 _atom_site_fract_x
 _atom_site_fract_y
 _atom_site_fract_z
 _atom_site_fract_occupancy
 Ga  Ga1  1  0.54676  0.54676  0.00000  1
 Ga  Ga2  1  -0.00000  0.45324  0.66667  1
 Ga  Ga3  1  0.45324  -0.00000  0.33333  1
 O  O1  1  0.27717  0.40512  0.13016  1
 O  O2  1  0.59488  0.87205  0.46349  1
 O  O3  1  0.59304  0.91785  0.94209  1
 O  O4  1  0.87205  0.59488  0.53651  1
 O  O5  1  0.12795  0.72283  0.79682  1
 O  O6  1  0.40512  0.27717  0.86984  1
 O  O7  1  0.67519  0.08215  0.72457  1
 O  O8  1  0.72283  0.12795  0.20318  1
 O  O9  1  0.91785  0.59304  0.05791  1
 O  O10  1  0.08215  0.67519  0.27543  1
 O  O11  1  0.40696  0.32481  0.39124  1
 O  O12  1  0.32481  0.40696  0.60876  1
 P  P1  1  0.45235  -0.00000  0.83333  1
 P  P2  1  -0.00000  0.45235  0.16667  1
 P  P3  1  0.54765  0.54765  0.50000  1
