CIF file written using JARVIS-Tools package.
data_Mo5As4
_symmetry_space_group_name_H-M  'I4/m'
_cell_length_a       3.30973
_cell_length_b       7.04378
_cell_length_c       7.04378
_cell_angle_alpha    86.8359
_cell_angle_beta     76.4118
_cell_angle_gamma    76.4119

_symmetry_Int_Tables_number  87
_chemical_formula_structural  Mo5As4
_chemical_formula_sum  Mo5As4
_cell_volume  155.14775596884888
_cell_formula_units_Z  1
loop_
  _symmetry_equiv_pos_site_id
 _symmetry_equiv_pos_as_xyz
 1  'x, y, z'
loop_
 _atom_site_type_symbol
 _atom_site_label
 _atom_site_symmetry_multiplicity
 _atom_site_fract_x
 _atom_site_fract_y
 _atom_site_fract_z
 _atom_site_fract_occupancy
 As  As1  1  0.94281  0.77104  0.34335  1
 As  As2  1  0.28615  0.65665  0.77104  1
 As  As3  1  0.71385  0.34335  0.22896  1
 As  As4  1  0.05719  0.22896  0.65665  1
 Mo  Mo1  1  0.70061  0.91999  0.67880  1
 Mo  Mo2  1  0.37940  0.32120  0.91999  1
 Mo  Mo3  1  0.62060  0.67880  0.08001  1
 Mo  Mo4  1  0.29939  0.08001  0.32120  1
 Mo  Mo5  1  0.00000  0.00000  0.00000  1
