CIF file written using JARVIS-Tools package.
data_Ca2HN
_symmetry_space_group_name_H-M  'Fd-3m'
_cell_length_a       7.11073
_cell_length_b       7.11073
_cell_length_c       7.11073
_cell_angle_alpha    60
_cell_angle_beta     60
_cell_angle_gamma    60

_symmetry_Int_Tables_number  227
_chemical_formula_structural  Ca2HN
_chemical_formula_sum  Ca8H4N4
_cell_volume  254.23053062995203
_cell_formula_units_Z  4
loop_
  _symmetry_equiv_pos_site_id
 _symmetry_equiv_pos_as_xyz
 1  'x, y, z'
loop_
 _atom_site_type_symbol
 _atom_site_label
 _atom_site_symmetry_multiplicity
 _atom_site_fract_x
 _atom_site_fract_y
 _atom_site_fract_z
 _atom_site_fract_occupancy
 Ca  Ca1  1  0.73853  0.73853  0.73853  1
 Ca  Ca2  1  0.26147  0.26147  0.71560  1
 Ca  Ca3  1  0.26147  0.71560  0.26147  1
 Ca  Ca4  1  0.71560  0.26147  0.26147  1
 Ca  Ca5  1  0.73853  0.28440  0.73853  1
 Ca  Ca6  1  0.28440  0.73853  0.73853  1
 Ca  Ca7  1  0.73853  0.73853  0.28440  1
 Ca  Ca8  1  0.26147  0.26147  0.26147  1
 H  H1  1  0.00000  0.50000  0.00000  1
 H  H2  1  0.50000  0.00000  0.00000  1
 H  H3  1  0.00000  0.00000  0.50000  1
 H  H4  1  0.00000  0.00000  0.00000  1
 N  N1  1  0.50000  0.00000  0.50000  1
 N  N2  1  0.00000  0.50000  0.50000  1
 N  N3  1  0.50000  0.50000  0.00000  1
 N  N4  1  0.50000  0.50000  0.50000  1
