CIF file written using JARVIS-Tools package.
data_MgFeO2
_symmetry_space_group_name_H-M  'C2/m'
_cell_length_a       2.86448
_cell_length_b       7.84128
_cell_length_c       8.01051
_cell_angle_alpha    82.5378
_cell_angle_beta     79.7042
_cell_angle_gamma    79.4905

_symmetry_Int_Tables_number  12
_chemical_formula_structural  MgFeO2
_chemical_formula_sum  Mg4Fe4O8
_cell_volume  173.1767279927287
_cell_formula_units_Z  4
loop_
  _symmetry_equiv_pos_site_id
 _symmetry_equiv_pos_as_xyz
 1  'x, y, z'
loop_
 _atom_site_type_symbol
 _atom_site_label
 _atom_site_symmetry_multiplicity
 _atom_site_fract_x
 _atom_site_fract_y
 _atom_site_fract_z
 _atom_site_fract_occupancy
 Fe  Fe1  1  0.93481  0.41188  0.69790  1
 Fe  Fe2  1  0.31125  0.72741  0.63027  1
 Fe  Fe3  1  0.67265  0.24439  0.38982  1
 Fe  Fe4  1  0.04905  0.55992  0.32219  1
 Mg  Mg1  1  0.66835  0.67151  0.97190  1
 Mg  Mg2  1  0.31553  0.30029  0.04818  1
 Mg  Mg3  1  0.42279  0.88226  0.25275  1
 Mg  Mg4  1  0.56108  0.08954  0.76733  1
 O  O1  1  0.67902  0.44337  0.17846  1
 O  O2  1  0.09914  0.19915  0.58181  1
 O  O3  1  0.88476  0.77264  0.43827  1
 O  O4  1  0.30486  0.52842  0.84163  1
 O  O5  1  0.93654  0.20150  0.90473  1
 O  O6  1  0.69006  0.84000  0.76011  1
 O  O7  1  0.04734  0.77030  0.11535  1
 O  O8  1  0.29383  0.13179  0.25997  1
