CIF file written using JARVIS-Tools package.
data_Zn2Co3O8
_symmetry_space_group_name_H-M  'C2/m'
_cell_length_a       4.88669
_cell_length_b       5.65354
_cell_length_c       5.60502
_cell_angle_alpha    120.287
_cell_angle_beta     100.969
_cell_angle_gamma    90

_symmetry_Int_Tables_number  12
_chemical_formula_structural  Zn2Co3O8
_chemical_formula_sum  Zn2Co3O8
_cell_volume  130.42861522830614
_cell_formula_units_Z  1
loop_
  _symmetry_equiv_pos_site_id
 _symmetry_equiv_pos_as_xyz
 1  'x, y, z'
loop_
 _atom_site_type_symbol
 _atom_site_label
 _atom_site_symmetry_multiplicity
 _atom_site_fract_x
 _atom_site_fract_y
 _atom_site_fract_z
 _atom_site_fract_occupancy
 Co  Co1  1  0.50000  1.00000  0.00000  1
 Co  Co2  1  1.00000  0.74580  -0.00000  1
 Co  Co3  1  1.00000  0.25420  0.00000  1
 O  O1  1  0.09351  0.39511  0.79022  1
 O  O2  1  0.90649  0.60489  0.20978  1
 O  O3  1  0.12531  0.90073  0.80146  1
 O  O4  1  0.87469  0.09927  0.19854  1
 O  O5  1  0.36701  0.33954  0.22782  1
 O  O6  1  0.36701  0.88828  0.22782  1
 O  O7  1  0.63299  0.11172  0.77218  1
 O  O8  1  0.63299  0.66046  0.77218  1
 Zn  Zn1  1  0.60533  0.70886  0.41771  1
 Zn  Zn2  1  0.39467  0.29114  0.58229  1
