CIF file written using JARVIS-Tools package.
data_TlAgTe
_symmetry_space_group_name_H-M  'Pnma'
_cell_length_a       4.9106
_cell_length_b       8.03645
_cell_length_c       8.67368
_cell_angle_alpha    90
_cell_angle_beta     90
_cell_angle_gamma    90

_symmetry_Int_Tables_number  62
_chemical_formula_structural  TlAgTe
_chemical_formula_sum  Tl4Ag4Te4
_cell_volume  342.29599118298603
_cell_formula_units_Z  4
loop_
  _symmetry_equiv_pos_site_id
 _symmetry_equiv_pos_as_xyz
 1  'x, y, z'
loop_
 _atom_site_type_symbol
 _atom_site_label
 _atom_site_symmetry_multiplicity
 _atom_site_fract_x
 _atom_site_fract_y
 _atom_site_fract_z
 _atom_site_fract_occupancy
 Ag  Ag1  1  0.25000  0.58797  0.17066  1
 Ag  Ag2  1  0.75000  0.41203  0.82934  1
 Ag  Ag3  1  0.75000  0.08797  0.32934  1
 Ag  Ag4  1  0.25000  0.91203  0.67066  1
 Te  Te1  1  0.75000  0.40338  0.18704  1
 Te  Te2  1  0.75000  0.09662  0.68704  1
 Te  Te3  1  0.25000  0.59662  0.81296  1
 Te  Te4  1  0.25000  0.90338  0.31296  1
 Tl  Tl1  1  0.25000  0.17945  0.98735  1
 Tl  Tl2  1  0.75000  0.67945  0.51265  1
 Tl  Tl3  1  0.25000  0.32055  0.48735  1
 Tl  Tl4  1  0.75000  0.82055  0.01265  1
