CIF file written using JARVIS-Tools package.
data_SnWO4
_symmetry_space_group_name_H-M  'P2_13'
_cell_length_a       7.35237
_cell_length_b       7.35237
_cell_length_c       7.35237
_cell_angle_alpha    90
_cell_angle_beta     90
_cell_angle_gamma    90

_symmetry_Int_Tables_number  198
_chemical_formula_structural  SnWO4
_chemical_formula_sum  Sn4W4O6
_cell_volume  397.4498531572073
_cell_formula_units_Z  4
loop_
  _symmetry_equiv_pos_site_id
 _symmetry_equiv_pos_as_xyz
 1  'x, y, z'
loop_
 _atom_site_type_symbol
 _atom_site_label
 _atom_site_symmetry_multiplicity
 _atom_site_fract_x
 _atom_site_fract_y
 _atom_site_fract_z
 _atom_site_fract_occupancy
 O  O1  1  0.80536  0.19464  0.69464  1
 O  O2  1  0.63082  0.22067  0.04939  1
 O  O3  1  0.13082  0.27933  0.95061  1
 O  O4  1  0.36918  0.72067  0.45061  1
 O  O5  1  0.77933  0.54939  0.86918  1
 O  O6  1  0.45061  0.36918  0.72067  1
 O  O7  1  0.95061  0.13082  0.27933  1
 O  O8  1  0.27933  0.95061  0.13082  1
 O  O9  1  0.04939  0.63082  0.22067  1
 O  O10  1  0.30536  0.30536  0.30536  1
 O  O11  1  0.19464  0.69464  0.80536  1
 O  O12  1  0.86918  0.77933  0.54939  1
 O  O13  1  0.69464  0.80536  0.19464  1
 O  O14  1  0.72067  0.45061  0.36918  1
 O  O15  1  0.54939  0.86918  0.77933  1
 O  O16  1  0.22067  0.04939  0.63082  1
 Sn  Sn1  1  0.15583  0.34417  0.65583  1
 Sn  Sn2  1  0.34417  0.65583  0.15583  1
 Sn  Sn3  1  0.65583  0.15583  0.34417  1
 Sn  Sn4  1  0.84417  0.84417  0.84417  1
 W  W1  1  0.83547  0.66453  0.33547  1
 W  W2  1  0.66453  0.33547  0.83547  1
 W  W3  1  0.33547  0.83547  0.66453  1
 W  W4  1  0.16453  0.16453  0.16453  1
