CIF file written using JARVIS-Tools package.
data_SrH4O6
_symmetry_space_group_name_H-M  'Cc'
_cell_length_a       5.98006
_cell_length_b       5.98006
_cell_length_c       6.08766
_cell_angle_alpha    95.0717
_cell_angle_beta     84.9283
_cell_angle_gamma    75.5232

_symmetry_Int_Tables_number  9
_chemical_formula_structural  SrH4O6
_chemical_formula_sum  Sr2H8O2
_cell_volume  208.58135524781514
_cell_formula_units_Z  2
loop_
  _symmetry_equiv_pos_site_id
 _symmetry_equiv_pos_as_xyz
 1  'x, y, z'
loop_
 _atom_site_type_symbol
 _atom_site_label
 _atom_site_symmetry_multiplicity
 _atom_site_fract_x
 _atom_site_fract_y
 _atom_site_fract_z
 _atom_site_fract_occupancy
 H  H1  1  -0.08626  0.61450  0.24029  1
 H  H2  1  0.70417  0.01267  0.29265  1
 H  H3  1  -0.01267  0.29583  0.79265  1
 H  H4  1  0.38550  0.08626  0.74029  1
 H  H5  1  0.66910  0.39257  0.10561  1
 H  H6  1  0.60743  0.33090  0.60561  1
 H  H7  1  0.33886  0.72982  0.43253  1
 H  H8  1  0.27018  0.66114  0.93253  1
 O  O1  1  0.43254  0.16714  0.59413  1
 O  O2  1  0.83286  0.56746  0.09413  1
 O  O3  1  0.79807  0.07166  0.15357  1
 O  O4  1  0.92834  0.20193  0.65357  1
 O  O5  1  0.27009  0.76415  0.81339  1
 O  O6  1  0.23585  0.72991  0.31339  1
 O  O7  1  0.56184  0.94837  0.44951  1
 O  O8  1  0.74697  0.40032  0.59608  1
 O  O9  1  0.37774  0.94422  0.90719  1
 O  O10  1  0.05163  0.43816  0.94951  1
 O  O11  1  0.05578  0.62226  0.40719  1
 O  O12  1  0.59968  0.25303  0.09608  1
 Sr  Sr1  1  0.18541  0.18346  0.26861  1
 Sr  Sr2  1  0.81654  0.81459  0.76861  1
