CIF file written using JARVIS-Tools package.
data_Cu3Ge
_symmetry_space_group_name_H-M  'Pmmn'
_cell_length_a       4.24566
_cell_length_b       4.61522
_cell_length_c       5.32719
_cell_angle_alpha    90
_cell_angle_beta     90
_cell_angle_gamma    90

_symmetry_Int_Tables_number  59
_chemical_formula_structural  Cu3Ge
_chemical_formula_sum  Cu6Ge2
_cell_volume  104.38438834547199
_cell_formula_units_Z  2
loop_
  _symmetry_equiv_pos_site_id
 _symmetry_equiv_pos_as_xyz
 1  'x, y, z'
loop_
 _atom_site_type_symbol
 _atom_site_label
 _atom_site_symmetry_multiplicity
 _atom_site_fract_x
 _atom_site_fract_y
 _atom_site_fract_z
 _atom_site_fract_occupancy
 Cu  Cu1  1  0.00000  0.16853  0.50000  1
 Cu  Cu2  1  0.50000  0.83147  0.00000  1
 Cu  Cu3  1  0.50000  0.33720  0.24849  1
 Cu  Cu4  1  0.50000  0.33720  0.75151  1
 Cu  Cu5  1  0.00000  0.66280  0.25151  1
 Cu  Cu6  1  0.00000  0.66280  0.74849  1
 Ge  Ge1  1  0.50000  0.82819  0.50000  1
 Ge  Ge2  1  0.00000  0.17181  0.00000  1
