CIF file written using JARVIS-Tools package.
data_Na2NiO2
_symmetry_space_group_name_H-M  'Cmc2_1'
_cell_length_a       2.84535
_cell_length_b       5.22403
_cell_length_c       8.31641
_cell_angle_alpha    90
_cell_angle_beta     90
_cell_angle_gamma    105.803

_symmetry_Int_Tables_number  36
_chemical_formula_structural  Na2NiO2
_chemical_formula_sum  Na4Ni2O4
_cell_volume  118.9445210359455
_cell_formula_units_Z  2
loop_
  _symmetry_equiv_pos_site_id
 _symmetry_equiv_pos_as_xyz
 1  'x, y, z'
loop_
 _atom_site_type_symbol
 _atom_site_label
 _atom_site_symmetry_multiplicity
 _atom_site_fract_x
 _atom_site_fract_y
 _atom_site_fract_z
 _atom_site_fract_occupancy
 Na  Na1  1  0.39707  0.79415  0.15254  1
 Na  Na2  1  0.84926  0.69851  0.83096  1
 Na  Na3  1  0.60293  0.20585  0.65254  1
 Na  Na4  1  0.15074  0.30149  0.33096  1
 Ni  Ni1  1  0.12181  0.24363  0.99816  1
 Ni  Ni2  1  0.87819  0.75637  0.49816  1
 O  O1  1  0.72097  0.44194  0.09332  1
 O  O2  1  0.52051  0.04102  0.91032  1
 O  O3  1  0.27903  0.55806  0.59332  1
 O  O4  1  0.47949  0.95898  0.41032  1
