CIF file written using JARVIS-Tools package.
data_YbIn2Pd
_symmetry_space_group_name_H-M  'Cmcm'
_cell_length_a       4.41706
_cell_length_b       5.55798
_cell_length_c       7.99084
_cell_angle_alpha    90
_cell_angle_beta     90
_cell_angle_gamma    113.413

_symmetry_Int_Tables_number  63
_chemical_formula_structural  YbIn2Pd
_chemical_formula_sum  Yb2In4Pd2
_cell_volume  180.02205316788832
_cell_formula_units_Z  2
loop_
  _symmetry_equiv_pos_site_id
 _symmetry_equiv_pos_as_xyz
 1  'x, y, z'
loop_
 _atom_site_type_symbol
 _atom_site_label
 _atom_site_symmetry_multiplicity
 _atom_site_fract_x
 _atom_site_fract_y
 _atom_site_fract_z
 _atom_site_fract_occupancy
 In  In1  1  0.35756  0.71513  0.55150  1
 In  In2  1  0.64244  0.28487  0.44850  1
 In  In3  1  0.35756  0.71513  0.94850  1
 In  In4  1  0.64244  0.28487  0.05150  1
 Pd  Pd1  1  0.78270  0.56540  0.75000  1
 Pd  Pd2  1  0.21730  0.43460  0.25000  1
 Yb  Yb1  1  0.93199  0.86397  0.25000  1
 Yb  Yb2  1  0.06801  0.13603  0.75000  1
