CIF file written using JARVIS-Tools package.
data_ZnSiO3
_symmetry_space_group_name_H-M  'R-3'
_cell_length_a       4.80455
_cell_length_b       4.80455
_cell_length_c       5.40483
_cell_angle_alpha    63.6106
_cell_angle_beta     63.6107
_cell_angle_gamma    59.9999

_symmetry_Int_Tables_number  148
_chemical_formula_structural  ZnSiO3
_chemical_formula_sum  Zn2Si2O6
_cell_volume  92.73283422192635
_cell_formula_units_Z  2
loop_
  _symmetry_equiv_pos_site_id
 _symmetry_equiv_pos_as_xyz
 1  'x, y, z'
loop_
 _atom_site_type_symbol
 _atom_site_label
 _atom_site_symmetry_multiplicity
 _atom_site_fract_x
 _atom_site_fract_y
 _atom_site_fract_z
 _atom_site_fract_occupancy
 O  O1  1  0.56257  0.95366  0.28480  1
 O  O2  1  0.19897  0.56257  0.28480  1
 O  O3  1  0.95366  0.19897  0.28480  1
 O  O4  1  0.43743  0.04634  0.71520  1
 O  O5  1  0.80103  0.43743  0.71520  1
 O  O6  1  0.04634  0.80103  0.71520  1
 Si  Si1  1  0.83991  0.83991  0.48028  1
 Si  Si2  1  0.16009  0.16009  0.51972  1
 Zn  Zn1  1  0.63082  0.63082  0.10755  1
 Zn  Zn2  1  0.36918  0.36918  0.89245  1
