CIF file written using JARVIS-Tools package.
data_AgBiO3
_symmetry_space_group_name_H-M  'Cmmm'
_cell_length_a       3.54393
_cell_length_b       6.73326
_cell_length_c       6.73323
_cell_angle_alpha    73.8429
_cell_angle_beta     89.9905
_cell_angle_gamma    89.9907

_symmetry_Int_Tables_number  65
_chemical_formula_structural  AgBiO3
_chemical_formula_sum  Ag2Bi2O6
_cell_volume  154.3235339071963
_cell_formula_units_Z  2
loop_
  _symmetry_equiv_pos_site_id
 _symmetry_equiv_pos_as_xyz
 1  'x, y, z'
loop_
 _atom_site_type_symbol
 _atom_site_label
 _atom_site_symmetry_multiplicity
 _atom_site_fract_x
 _atom_site_fract_y
 _atom_site_fract_z
 _atom_site_fract_occupancy
 Ag  Ag1  1  0.49926  0.49997  0.49941  1
 Ag  Ag2  1  0.49926  0.99996  0.99943  1
 Bi  Bi1  1  0.99925  0.49996  0.99941  1
 Bi  Bi2  1  0.99926  -0.00003  0.49943  1
 O  O1  1  0.49917  0.54299  0.19356  1
 O  O2  1  0.49933  0.80583  0.45639  1
 O  O3  1  0.99926  0.86777  0.86724  1
 O  O4  1  -0.00075  0.13215  0.13162  1
 O  O5  1  0.49933  0.45696  0.80526  1
 O  O6  1  0.49918  0.19412  0.54242  1
