CIF file written using JARVIS-Tools package.
data_PrC2
_symmetry_space_group_name_H-M  'I4/mmm'
_cell_length_a       3.88018
_cell_length_b       3.88018
_cell_length_c       4.26191
_cell_angle_alpha    117.079
_cell_angle_beta     117.079
_cell_angle_gamma    90.0001

_symmetry_Int_Tables_number  139
_chemical_formula_structural  PrC2
_chemical_formula_sum  PrC2
_cell_volume  49.101297506659776
_cell_formula_units_Z  1
loop_
  _symmetry_equiv_pos_site_id
 _symmetry_equiv_pos_as_xyz
 1  'x, y, z'
loop_
 _atom_site_type_symbol
 _atom_site_label
 _atom_site_symmetry_multiplicity
 _atom_site_fract_x
 _atom_site_fract_y
 _atom_site_fract_z
 _atom_site_fract_occupancy
 C  C1  1  0.40116  0.40116  0.80233  1
 C  C2  1  0.59884  0.59884  0.19767  1
 Pr  Pr1  1  0.00000  0.00000  0.00000  1
