CIF file written using JARVIS-Tools package.
data_Ba2Mn3Sb2O2
_symmetry_space_group_name_H-M  'I4/mmm'
_cell_length_a       4.14495
_cell_length_b       4.14496
_cell_length_c       11.2107
_cell_angle_alpha    100.653
_cell_angle_beta     100.653
_cell_angle_gamma    90

_symmetry_Int_Tables_number  139
_chemical_formula_structural  Ba2Mn3Sb2O2
_chemical_formula_sum  Ba2Mn3Sb2O2
_cell_volume  185.90715965708256
_cell_formula_units_Z  1
loop_
  _symmetry_equiv_pos_site_id
 _symmetry_equiv_pos_as_xyz
 1  'x, y, z'
loop_
 _atom_site_type_symbol
 _atom_site_label
 _atom_site_symmetry_multiplicity
 _atom_site_fract_x
 _atom_site_fract_y
 _atom_site_fract_z
 _atom_site_fract_occupancy
 Ba  Ba1  1  0.58528  0.58528  0.17056  1
 Ba  Ba2  1  0.41472  0.41472  0.82944  1
 Mn  Mn1  1  0.00000  0.00000  0.00000  1
 Mn  Mn2  1  0.75000  0.25000  0.50000  1
 Mn  Mn3  1  0.25000  0.75000  0.50000  1
 O  O1  1  -0.00000  0.50000  0.00000  1
 O  O2  1  0.50000  -0.00000  -0.00000  1
 Sb  Sb1  1  0.17587  0.17587  0.35175  1
 Sb  Sb2  1  0.82413  0.82413  0.64825  1
