CIF file written using JARVIS-Tools package.
data_LuSiRu
_symmetry_space_group_name_H-M  'Pnma'
_cell_length_a       4.27258
_cell_length_b       6.84995
_cell_length_c       7.08395
_cell_angle_alpha    90
_cell_angle_beta     90
_cell_angle_gamma    90

_symmetry_Int_Tables_number  62
_chemical_formula_structural  LuSiRu
_chemical_formula_sum  Lu4Si4Ru4
_cell_volume  207.32546631571483
_cell_formula_units_Z  4
loop_
  _symmetry_equiv_pos_site_id
 _symmetry_equiv_pos_as_xyz
 1  'x, y, z'
loop_
 _atom_site_type_symbol
 _atom_site_label
 _atom_site_symmetry_multiplicity
 _atom_site_fract_x
 _atom_site_fract_y
 _atom_site_fract_z
 _atom_site_fract_occupancy
 Lu  Lu1  1  0.25000  0.98905  0.81170  1
 Lu  Lu2  1  0.75000  0.51095  0.31170  1
 Lu  Lu3  1  0.25000  0.48905  0.68830  1
 Lu  Lu4  1  0.75000  0.01095  0.18830  1
 Ru  Ru1  1  0.75000  0.84311  0.56450  1
 Ru  Ru2  1  0.25000  0.65689  0.06450  1
 Ru  Ru3  1  0.75000  0.34311  0.93550  1
 Ru  Ru4  1  0.25000  0.15689  0.43550  1
 Si  Si1  1  0.25000  0.79988  0.39256  1
 Si  Si2  1  0.75000  0.70012  0.89256  1
 Si  Si3  1  0.25000  0.29988  0.10744  1
 Si  Si4  1  0.75000  0.20012  0.60744  1
