CIF file written using JARVIS-Tools package.
data_HfCuSi2
_symmetry_space_group_name_H-M  'P4/nmm'
_cell_length_a       3.70388
_cell_length_b       3.70388
_cell_length_c       9.03121
_cell_angle_alpha    90
_cell_angle_beta     90
_cell_angle_gamma    90

_symmetry_Int_Tables_number  129
_chemical_formula_structural  HfCuSi2
_chemical_formula_sum  Hf2Cu2Si4
_cell_volume  123.89672556124317
_cell_formula_units_Z  2
loop_
  _symmetry_equiv_pos_site_id
 _symmetry_equiv_pos_as_xyz
 1  'x, y, z'
loop_
 _atom_site_type_symbol
 _atom_site_label
 _atom_site_symmetry_multiplicity
 _atom_site_fract_x
 _atom_site_fract_y
 _atom_site_fract_z
 _atom_site_fract_occupancy
 Cu  Cu1  1  0.50000  0.50000  0.00000  1
 Cu  Cu2  1  0.00000  0.00000  0.00000  1
 Hf  Hf1  1  0.50000  0.00000  0.26643  1
 Hf  Hf2  1  0.00000  0.50000  0.73357  1
 Si  Si1  1  0.00000  0.00000  0.50000  1
 Si  Si2  1  0.50000  0.50000  0.50000  1
 Si  Si3  1  0.00000  0.50000  0.17441  1
 Si  Si4  1  0.50000  0.00000  0.82559  1
