CIF file written using JARVIS-Tools package.
data_LiFeF4
_symmetry_space_group_name_H-M  'Cmmm'
_cell_length_a       4.63571
_cell_length_b       4.63571
_cell_length_c       6.14027
_cell_angle_alpha    90
_cell_angle_beta     90
_cell_angle_gamma    92.2251

_symmetry_Int_Tables_number  65
_chemical_formula_structural  LiFeF4
_chemical_formula_sum  Li2Fe2F8
_cell_volume  131.85348010938836
_cell_formula_units_Z  2
loop_
  _symmetry_equiv_pos_site_id
 _symmetry_equiv_pos_as_xyz
 1  'x, y, z'
loop_
 _atom_site_type_symbol
 _atom_site_label
 _atom_site_symmetry_multiplicity
 _atom_site_fract_x
 _atom_site_fract_y
 _atom_site_fract_z
 _atom_site_fract_occupancy
 F  F1  1  0.19404  0.80593  0.25000  1
 F  F2  1  0.19407  0.80596  0.75000  1
 F  F3  1  0.29392  0.29392  0.00002  1
 F  F4  1  0.29392  0.29392  0.49998  1
 F  F5  1  0.70608  0.70608  0.50002  1
 F  F6  1  0.70608  0.70608  0.99998  1
 F  F7  1  0.80593  0.19404  0.25000  1
 F  F8  1  0.80596  0.19407  0.75000  1
 Fe  Fe1  1  0.00000  0.00000  0.00000  1
 Fe  Fe2  1  0.00000  0.00000  0.50000  1
 Li  Li1  1  0.50007  0.50007  0.25000  1
 Li  Li2  1  0.49993  0.49993  0.75000  1
