CIF file written using JARVIS-Tools package.
data_Ca2AlSbO5
_symmetry_space_group_name_H-M  'Cc'
_cell_length_a       5.56576
_cell_length_b       5.87385
_cell_length_c       8.42212
_cell_angle_alpha    110.409
_cell_angle_beta     104.82
_cell_angle_gamma    89.9998

_symmetry_Int_Tables_number  9
_chemical_formula_structural  Ca2AlSbO5
_chemical_formula_sum  Ca4Al2Sb2O0
_cell_volume  248.25928579250967
_cell_formula_units_Z  2
loop_
  _symmetry_equiv_pos_site_id
 _symmetry_equiv_pos_as_xyz
 1  'x, y, z'
loop_
 _atom_site_type_symbol
 _atom_site_label
 _atom_site_symmetry_multiplicity
 _atom_site_fract_x
 _atom_site_fract_y
 _atom_site_fract_z
 _atom_site_fract_occupancy
 Al  Al1  1  0.26050  0.30376  0.48393  1
 Al  Al2  1  0.76050  0.67804  0.48393  1
 Ca  Ca1  1  0.17657  0.64576  0.25209  1
 Ca  Ca2  1  0.39373  0.89481  0.74020  1
 Ca  Ca3  1  0.89373  0.34327  0.74021  1
 Ca  Ca4  1  0.67658  0.10421  0.25208  1
 O  O1  1  0.87617  0.33034  0.11721  1
 O  O2  1  0.07311  0.57052  0.50780  1
 O  O3  1  0.64218  0.72148  0.27611  1
 O  O4  1  0.57311  0.43516  0.50781  1
 O  O5  1  0.14217  0.05252  0.27611  1
 O  O6  1  0.37617  0.28475  0.11723  1
 O  O7  1  0.19208  0.64078  0.97904  1
 O  O8  1  0.21127  0.18405  0.63655  1
 O  O9  1  0.71127  0.95037  0.63654  1
 O  O10  1  0.69207  0.83614  0.97903  1
 Sb  Sb1  1  0.03795  0.01737  0.00693  1
 Sb  Sb2  1  0.53794  0.48743  0.00693  1
