CIF file written using JARVIS-Tools package.
data_KCu2P2H3O8F2
_symmetry_space_group_name_H-M  'C2/m'
_cell_length_a       5.58634
_cell_length_b       7.79678
_cell_length_c       5.58634
_cell_angle_alpha    66.8411
_cell_angle_beta     110.318
_cell_angle_gamma    113.159

_symmetry_Int_Tables_number  12
_chemical_formula_structural  KCu2P2H3O8F2
_chemical_formula_sum  KCu2P2H3O8F2
_cell_volume  200.2749237966534
_cell_formula_units_Z  1
loop_
  _symmetry_equiv_pos_site_id
 _symmetry_equiv_pos_as_xyz
 1  'x, y, z'
loop_
 _atom_site_type_symbol
 _atom_site_label
 _atom_site_symmetry_multiplicity
 _atom_site_fract_x
 _atom_site_fract_y
 _atom_site_fract_z
 _atom_site_fract_occupancy
 Cu  Cu1  1  0.00000  0.50000  0.50000  1
 Cu  Cu2  1  0.50000  0.50000  0.00000  1
 F  F1  1  0.31311  -0.00121  0.68689  1
 F  F2  1  0.68689  0.00121  0.31311  1
 H  H1  1  0.80054  0.28626  0.19946  1
 H  H2  1  -0.00000  0.50000  0.00000  1
 H  H3  1  0.19946  0.71374  0.80054  1
 K  K1  1  0.00000  0.00000  0.00000  1
 O  O1  1  0.84839  0.42929  0.15161  1
 O  O2  1  0.33134  0.26766  0.26513  1
 O  O3  1  0.73487  0.26766  0.66866  1
 O  O4  1  0.68746  0.68440  0.31254  1
 O  O5  1  0.26513  0.73234  0.33134  1
 O  O6  1  0.31254  0.31560  0.68746  1
 O  O7  1  0.66866  0.73234  0.73487  1
 O  O8  1  0.15161  0.57071  0.84839  1
 P  P1  1  0.56656  0.76415  0.43344  1
 P  P2  1  0.43344  0.23585  0.56656  1
