CIF file written using JARVIS-Tools package.
data_PrOF
_symmetry_space_group_name_H-M  'R-3m'
_cell_length_a       7.05601
_cell_length_b       7.05601
_cell_length_c       7.05601
_cell_angle_alpha    33.0558
_cell_angle_beta     33.0558
_cell_angle_gamma    33.0558

_symmetry_Int_Tables_number  166
_chemical_formula_structural  PrOF
_chemical_formula_sum  Pr2O2F2
_cell_volume  93.0217697963092
_cell_formula_units_Z  2
loop_
  _symmetry_equiv_pos_site_id
 _symmetry_equiv_pos_as_xyz
 1  'x, y, z'
loop_
 _atom_site_type_symbol
 _atom_site_label
 _atom_site_symmetry_multiplicity
 _atom_site_fract_x
 _atom_site_fract_y
 _atom_site_fract_z
 _atom_site_fract_occupancy
 F  F1  1  0.36981  0.36981  0.36981  1
 F  F2  1  0.63019  0.63019  0.63019  1
 O  O1  1  0.12170  0.12170  0.12170  1
 O  O2  1  0.87830  0.87830  0.87830  1
 Pr  Pr1  1  0.24208  0.24208  0.24208  1
 Pr  Pr2  1  0.75792  0.75792  0.75792  1
