CIF file written using JARVIS-Tools package.
data_Be2P2O7
_symmetry_space_group_name_H-M  'C2/c'
_cell_length_a       5.14357
_cell_length_b       5.14357
_cell_length_c       9.25345
_cell_angle_alpha    74.4914
_cell_angle_beta     105.509
_cell_angle_gamma    81.9926

_symmetry_Int_Tables_number  15
_chemical_formula_structural  Be2P2O7
_chemical_formula_sum  Be4P4O4
_cell_volume  221.3737265132378
_cell_formula_units_Z  2
loop_
  _symmetry_equiv_pos_site_id
 _symmetry_equiv_pos_as_xyz
 1  'x, y, z'
loop_
 _atom_site_type_symbol
 _atom_site_label
 _atom_site_symmetry_multiplicity
 _atom_site_fract_x
 _atom_site_fract_y
 _atom_site_fract_z
 _atom_site_fract_occupancy
 Be  Be1  1  0.44497  0.33902  0.93499  1
 Be  Be2  1  0.33902  0.44497  0.56501  1
 Be  Be3  1  0.66098  0.55503  0.43499  1
 Be  Be4  1  0.55503  0.66098  0.06501  1
 O  O1  1  0.13045  0.32526  0.86432  1
 O  O2  1  0.18051  0.69194  0.60536  1
 O  O3  1  0.81949  0.30806  0.39464  1
 O  O4  1  0.96159  0.96159  0.75000  1
 O  O5  1  0.67474  0.86955  0.36432  1
 O  O6  1  0.45313  0.68588  0.87369  1
 O  O7  1  0.31412  0.54687  0.37369  1
 O  O8  1  0.68588  0.45313  0.62631  1
 O  O9  1  0.32526  0.13045  0.63568  1
 O  O10  1  0.30806  0.81949  0.10536  1
 O  O11  1  0.03841  0.03841  0.25000  1
 O  O12  1  0.54687  0.31412  0.12631  1
 O  O13  1  0.69194  0.18051  0.89464  1
 O  O14  1  0.86955  0.67474  0.13568  1
 P  P1  1  0.75909  0.12829  0.29026  1
 P  P2  1  0.87171  0.24091  0.79026  1
 P  P3  1  0.12829  0.75909  0.20974  1
 P  P4  1  0.24091  0.87171  0.70974  1
