CIF file written using JARVIS-Tools package.
data_VO2
_symmetry_space_group_name_H-M  'Fd-3m'
_cell_length_a       5.75464
_cell_length_b       5.75507
_cell_length_c       5.75481
_cell_angle_alpha    120.004
_cell_angle_beta     120
_cell_angle_gamma    90.0002

_symmetry_Int_Tables_number  227
_chemical_formula_structural  VO2
_chemical_formula_sum  V4O8
_cell_volume  134.75940277312316
_cell_formula_units_Z  4
loop_
  _symmetry_equiv_pos_site_id
 _symmetry_equiv_pos_as_xyz
 1  'x, y, z'
loop_
 _atom_site_type_symbol
 _atom_site_label
 _atom_site_symmetry_multiplicity
 _atom_site_fract_x
 _atom_site_fract_y
 _atom_site_fract_z
 _atom_site_fract_occupancy
 O  O1  1  0.23754  0.71257  0.97508  1
 O  O2  1  0.78743  0.26246  0.52493  1
 O  O3  1  0.23751  0.26246  0.52493  1
 O  O4  1  0.23754  0.26250  0.97507  1
 O  O5  1  0.21257  0.73754  0.47507  1
 O  O6  1  0.76246  0.28743  0.02492  1
 O  O7  1  0.76246  0.73750  0.02493  1
 O  O8  1  0.76249  0.73754  0.47507  1
 V  V1  1  0.50000  0.50000  0.00000  1
 V  V2  1  0.00000  0.00000  0.50000  1
 V  V3  1  0.00000  0.50000  0.50000  1
 V  V4  1  0.00000  0.50000  0.00000  1
