CIF file written using JARVIS-Tools package.
data_MgCr2O4
_symmetry_space_group_name_H-M  'Imma'
_cell_length_a       5.86473
_cell_length_b       5.86473
_cell_length_c       5.92642
_cell_angle_alpha    59.6514
_cell_angle_beta     59.6514
_cell_angle_gamma    61.4887

_symmetry_Int_Tables_number  74
_chemical_formula_structural  MgCr2O4
_chemical_formula_sum  Mg2Cr4O8
_cell_volume  144.89744760964857
_cell_formula_units_Z  2
loop_
  _symmetry_equiv_pos_site_id
 _symmetry_equiv_pos_as_xyz
 1  'x, y, z'
loop_
 _atom_site_type_symbol
 _atom_site_label
 _atom_site_symmetry_multiplicity
 _atom_site_fract_x
 _atom_site_fract_y
 _atom_site_fract_z
 _atom_site_fract_occupancy
 Cr  Cr1  1  0.12942  0.12942  0.12058  1
 Cr  Cr2  1  0.50000  0.50000  0.00000  1
 Cr  Cr3  1  0.50000  0.50000  0.50000  1
 Cr  Cr4  1  0.87058  0.87058  0.87942  1
 Mg  Mg1  1  0.00000  0.50000  0.50000  1
 Mg  Mg2  1  0.50000  0.00000  0.50000  1
 O  O1  1  0.25640  0.25640  0.25597  1
 O  O2  1  0.25640  0.25640  0.73124  1
 O  O3  1  0.27768  0.73080  0.24576  1
 O  O4  1  0.73080  0.27768  0.24576  1
 O  O5  1  0.26920  0.72232  0.75424  1
 O  O6  1  0.72232  0.26920  0.75424  1
 O  O7  1  0.74360  0.74360  0.26876  1
 O  O8  1  0.74360  0.74360  0.74403  1
