CIF file written using JARVIS-Tools package.
data_TbH3O3
_symmetry_space_group_name_H-M  'P6_3/m'
_cell_length_a       6.2919
_cell_length_b       6.2919
_cell_length_c       3.56961
_cell_angle_alpha    90
_cell_angle_beta     90
_cell_angle_gamma    120

_symmetry_Int_Tables_number  176
_chemical_formula_structural  TbH3O3
_chemical_formula_sum  Tb2H6O6
_cell_volume  122.38145116470601
_cell_formula_units_Z  2
loop_
  _symmetry_equiv_pos_site_id
 _symmetry_equiv_pos_as_xyz
 1  'x, y, z'
loop_
 _atom_site_type_symbol
 _atom_site_label
 _atom_site_symmetry_multiplicity
 _atom_site_fract_x
 _atom_site_fract_y
 _atom_site_fract_z
 _atom_site_fract_occupancy
 H  H1  1  0.13464  0.27376  0.25000  1
 H  H2  1  0.27376  0.13913  0.75000  1
 H  H3  1  0.72624  0.86087  0.25000  1
 H  H4  1  0.86536  0.72624  0.75000  1
 H  H5  1  0.86087  0.13464  0.75000  1
 H  H6  1  0.13913  0.86536  0.25000  1
 O  O1  1  0.39323  0.08322  0.75000  1
 O  O2  1  0.31001  0.39323  0.25000  1
 O  O3  1  0.60677  0.91678  0.25000  1
 O  O4  1  0.68999  0.60677  0.75000  1
 O  O5  1  0.91678  0.31001  0.75000  1
 O  O6  1  0.08322  0.68999  0.25000  1
 Tb  Tb1  1  0.66667  0.33333  0.25000  1
 Tb  Tb2  1  0.33333  0.66667  0.75000  1
