CIF file written using JARVIS-Tools package.
data_Li2VF6
_symmetry_space_group_name_H-M  'Cmcm'
_cell_length_a       5.51708
_cell_length_b       8.39057
_cell_length_c       5.50608
_cell_angle_alpha    90
_cell_angle_beta     90
_cell_angle_gamma    70.8061

_symmetry_Int_Tables_number  63
_chemical_formula_structural  Li2VF6
_chemical_formula_sum  Li4V2F2
_cell_volume  240.71599325437987
_cell_formula_units_Z  2
loop_
  _symmetry_equiv_pos_site_id
 _symmetry_equiv_pos_as_xyz
 1  'x, y, z'
loop_
 _atom_site_type_symbol
 _atom_site_label
 _atom_site_symmetry_multiplicity
 _atom_site_fract_x
 _atom_site_fract_y
 _atom_site_fract_z
 _atom_site_fract_occupancy
 F  F1  1  0.62783  0.25817  0.98211  1
 F  F2  1  0.48780  0.02441  0.75000  1
 F  F3  1  0.37217  0.74183  0.01789  1
 F  F4  1  0.62783  0.25817  0.51789  1
 F  F5  1  0.88600  0.74183  0.01789  1
 F  F6  1  0.37217  0.74183  0.48211  1
 F  F7  1  0.73962  0.52075  0.25000  1
 F  F8  1  0.26038  0.47925  0.75000  1
 F  F9  1  0.51220  0.97559  0.25000  1
 F  F10  1  0.11400  0.25817  0.51789  1
 F  F11  1  0.11400  0.25817  0.98211  1
 F  F12  1  0.88600  0.74183  0.48211  1
 Li  Li1  1  0.85949  0.28102  0.25000  1
 Li  Li2  1  0.15547  0.68906  0.25000  1
 Li  Li3  1  0.84453  0.31094  0.75000  1
 Li  Li4  1  0.14051  0.71898  0.75000  1
 V  V1  1  0.37737  0.24526  0.75000  1
 V  V2  1  0.62263  0.75474  0.25000  1
