CIF file written using JARVIS-Tools package.
data_CuClO2
_symmetry_space_group_name_H-M  'C222_1'
_cell_length_a       3.5459
_cell_length_b       6.70561
_cell_length_c       6.70549
_cell_angle_alpha    58.1349
_cell_angle_beta     89.9537
_cell_angle_gamma    89.9556

_symmetry_Int_Tables_number  20
_chemical_formula_structural  CuClO2
_chemical_formula_sum  Cu2Cl2O4
_cell_volume  135.41036992702757
_cell_formula_units_Z  2
loop_
  _symmetry_equiv_pos_site_id
 _symmetry_equiv_pos_as_xyz
 1  'x, y, z'
loop_
 _atom_site_type_symbol
 _atom_site_label
 _atom_site_symmetry_multiplicity
 _atom_site_fract_x
 _atom_site_fract_y
 _atom_site_fract_z
 _atom_site_fract_occupancy
 Cl  Cl1  1  0.52126  0.63244  0.21822  1
 Cl  Cl2  1  0.01964  0.21095  0.79672  1
 Cu  Cu1  1  0.02081  0.75663  0.34320  1
 Cu  Cu2  1  0.51999  0.08610  0.67241  1
 O  O1  1  0.21910  0.83280  0.70257  1
 O  O2  1  0.71942  0.01003  0.31295  1
 O  O3  1  0.82172  0.11618  0.41921  1
 O  O4  1  0.32201  0.72663  0.59630  1
