CIF file written using JARVIS-Tools package.
data_CaSn2O4
_symmetry_space_group_name_H-M  'Cmcm'
_cell_length_a       3.3096
_cell_length_b       5.72758
_cell_length_c       10.945
_cell_angle_alpha    90
_cell_angle_beta     90
_cell_angle_gamma    106.793

_symmetry_Int_Tables_number  63
_chemical_formula_structural  CaSn2O4
_chemical_formula_sum  Ca2Sn4O8
_cell_volume  198.62496480540526
_cell_formula_units_Z  2
loop_
  _symmetry_equiv_pos_site_id
 _symmetry_equiv_pos_as_xyz
 1  'x, y, z'
loop_
 _atom_site_type_symbol
 _atom_site_label
 _atom_site_symmetry_multiplicity
 _atom_site_fract_x
 _atom_site_fract_y
 _atom_site_fract_z
 _atom_site_fract_occupancy
 Ca  Ca1  1  0.38723  0.77445  0.75000  1
 Ca  Ca2  1  0.61277  0.22555  0.25000  1
 O  O1  1  0.22763  0.45526  0.38667  1
 O  O2  1  0.77237  0.54474  0.61333  1
 O  O3  1  0.77237  0.54474  0.88667  1
 O  O4  1  0.22763  0.45526  0.11333  1
 O  O5  1  0.96113  0.92225  0.25000  1
 O  O6  1  0.03887  0.07775  0.75000  1
 O  O7  1  0.50000  0.00000  0.00000  1
 O  O8  1  0.50000  0.00000  0.50000  1
 Sn  Sn1  1  0.86882  0.73764  0.07379  1
 Sn  Sn2  1  0.13118  0.26236  0.92621  1
 Sn  Sn3  1  0.86882  0.73764  0.42621  1
 Sn  Sn4  1  0.13118  0.26236  0.57379  1
