CIF file written using JARVIS-Tools package.
data_LuFe2O4
_symmetry_space_group_name_H-M  'R-3m'
_cell_length_a       8.55768
_cell_length_b       8.55768
_cell_length_c       8.55767
_cell_angle_alpha    23.2014
_cell_angle_beta     23.2014
_cell_angle_gamma    23.2015

_symmetry_Int_Tables_number  166
_chemical_formula_structural  LuFe2O4
_chemical_formula_sum  LuFe2O4
_cell_volume  85.38949377822593
_cell_formula_units_Z  1
loop_
  _symmetry_equiv_pos_site_id
 _symmetry_equiv_pos_as_xyz
 1  'x, y, z'
loop_
 _atom_site_type_symbol
 _atom_site_label
 _atom_site_symmetry_multiplicity
 _atom_site_fract_x
 _atom_site_fract_y
 _atom_site_fract_z
 _atom_site_fract_occupancy
 Fe  Fe1  1  0.78624  0.78624  0.78624  1
 Fe  Fe2  1  0.21376  0.21376  0.21376  1
 Lu  Lu1  1  0.00000  0.00000  0.00000  1
 O  O1  1  0.70727  0.70727  0.70727  1
 O  O2  1  0.29273  0.29273  0.29273  1
 O  O3  1  0.87350  0.87350  0.87350  1
 O  O4  1  0.12650  0.12650  0.12650  1
