CIF file written using JARVIS-Tools package.
data_BaH4O6
_symmetry_space_group_name_H-M  'C2/c'
_cell_length_a       5.30618
_cell_length_b       5.30618
_cell_length_c       8.14826
_cell_angle_alpha    84.5882
_cell_angle_beta     95.4118
_cell_angle_gamma    106.271

_symmetry_Int_Tables_number  15
_chemical_formula_structural  BaH4O6
_chemical_formula_sum  Ba2H8O2
_cell_volume  218.69340452868505
_cell_formula_units_Z  2
loop_
  _symmetry_equiv_pos_site_id
 _symmetry_equiv_pos_as_xyz
 1  'x, y, z'
loop_
 _atom_site_type_symbol
 _atom_site_label
 _atom_site_symmetry_multiplicity
 _atom_site_fract_x
 _atom_site_fract_y
 _atom_site_fract_z
 _atom_site_fract_occupancy
 Ba  Ba1  1  0.78796  0.79210  0.76822  1
 Ba  Ba2  1  0.20790  0.21204  0.26822  1
 H  H1  1  0.26921  0.67787  0.56218  1
 H  H2  1  0.67395  0.27346  0.97425  1
 H  H3  1  0.72654  0.32605  0.47425  1
 H  H4  1  0.32213  0.73079  0.06218  1
 H  H5  1  0.36349  0.18416  0.65337  1
 H  H6  1  0.81584  0.63651  0.15337  1
 H  H7  1  0.18023  0.36772  0.88305  1
 H  H8  1  0.63228  0.81977  0.38305  1
 O  O1  1  0.61420  0.54688  0.46634  1
 O  O2  1  0.84114  0.19709  0.97935  1
 O  O3  1  0.80291  0.15886  0.47935  1
 O  O4  1  0.15493  0.80712  0.05705  1
 O  O5  1  0.19288  0.84507  0.55705  1
 O  O6  1  0.45312  0.38580  0.96634  1
 O  O7  1  0.66223  0.01576  0.33393  1
 O  O8  1  0.01185  0.66646  0.20248  1
 O  O9  1  0.38161  0.45704  0.57016  1
 O  O10  1  0.33354  0.98815  0.70248  1
 O  O11  1  -0.01576  0.33777  0.83393  1
 O  O12  1  0.54296  0.61839  0.07016  1
