CIF file written using JARVIS-Tools package.
data_ZnSn4O8
_symmetry_space_group_name_H-M  'Cm'
_cell_length_a       3.27619
_cell_length_b       7.65695
_cell_length_c       8.20905
_cell_angle_alpha    109.877
_cell_angle_beta     90.0075
_cell_angle_gamma    102.352

_symmetry_Int_Tables_number  8
_chemical_formula_structural  ZnSn4O8
_chemical_formula_sum  ZnSn4O8
_cell_volume  188.58172753881178
_cell_formula_units_Z  1
loop_
  _symmetry_equiv_pos_site_id
 _symmetry_equiv_pos_as_xyz
 1  'x, y, z'
loop_
 _atom_site_type_symbol
 _atom_site_label
 _atom_site_symmetry_multiplicity
 _atom_site_fract_x
 _atom_site_fract_y
 _atom_site_fract_z
 _atom_site_fract_occupancy
 O  O1  1  0.51392  0.68675  0.32481  1
 O  O2  1  0.85080  0.36030  0.29824  1
 O  O3  1  0.02660  0.71218  0.65582  1
 O  O4  1  0.35389  0.36664  0.61974  1
 O  O5  1  0.18962  0.03821  0.34921  1
 O  O6  1  0.23293  0.12444  0.97929  1
 O  O7  1  0.67853  0.01592  0.60569  1
 O  O8  1  0.89297  0.44463  0.00451  1
 Sn  Sn1  1  0.78049  0.21990  0.46975  1
 Sn  Sn2  1  0.49885  0.65660  0.80984  1
 Sn  Sn3  1  0.37245  0.40359  0.14820  1
 Sn  Sn4  1  0.08542  0.82972  0.46641  1
 Zn  Zn1  1  0.73656  0.13177  0.85969  1
