CIF file written using JARVIS-Tools package.
data_NiAs2
_symmetry_space_group_name_H-M  'Pnnm'
_cell_length_a       3.58206
_cell_length_b       4.82346
_cell_length_c       5.85847
_cell_angle_alpha    90
_cell_angle_beta     90
_cell_angle_gamma    90

_symmetry_Int_Tables_number  58
_chemical_formula_structural  NiAs2
_chemical_formula_sum  Ni2As4
_cell_volume  101.22235499969275
_cell_formula_units_Z  2
loop_
  _symmetry_equiv_pos_site_id
 _symmetry_equiv_pos_as_xyz
 1  'x, y, z'
loop_
 _atom_site_type_symbol
 _atom_site_label
 _atom_site_symmetry_multiplicity
 _atom_site_fract_x
 _atom_site_fract_y
 _atom_site_fract_z
 _atom_site_fract_occupancy
 As  As1  1  0.50000  0.70445  0.13144  1
 As  As2  1  0.50000  0.29555  0.86856  1
 As  As3  1  0.00000  0.79555  0.63144  1
 As  As4  1  0.00000  0.20445  0.36856  1
 Ni  Ni1  1  0.50000  0.50000  0.50000  1
 Ni  Ni2  1  0.00000  0.00000  0.00000  1
