CIF file written using JARVIS-Tools package.
data_MgV2O4
_symmetry_space_group_name_H-M  'Imma'
_cell_length_a       5.96968
_cell_length_b       5.96968
_cell_length_c       5.87325
_cell_angle_alpha    60.5329
_cell_angle_beta     60.5329
_cell_angle_gamma    60.2542

_symmetry_Int_Tables_number  74
_chemical_formula_structural  MgV2O4
_chemical_formula_sum  Mg2V4O8
_cell_volume  149.4716219886191
_cell_formula_units_Z  2
loop_
  _symmetry_equiv_pos_site_id
 _symmetry_equiv_pos_as_xyz
 1  'x, y, z'
loop_
 _atom_site_type_symbol
 _atom_site_label
 _atom_site_symmetry_multiplicity
 _atom_site_fract_x
 _atom_site_fract_y
 _atom_site_fract_z
 _atom_site_fract_occupancy
 Mg  Mg1  1  0.12500  0.62500  0.62500  1
 Mg  Mg2  1  0.62500  0.12500  0.62500  1
 O  O1  1  0.38581  0.38581  0.37133  1
 O  O2  1  0.38270  0.86220  0.37755  1
 O  O3  1  0.38581  0.38581  0.85705  1
 O  O4  1  0.86220  0.38270  0.37755  1
 O  O5  1  0.38780  0.86730  0.87245  1
 O  O6  1  0.86730  0.38780  0.87245  1
 O  O7  1  0.86419  0.86419  0.39295  1
 O  O8  1  0.86419  0.86419  0.87867  1
 V  V1  1  0.99698  0.99698  0.00302  1
 V  V2  1  0.25302  0.25302  0.24698  1
 V  V3  1  0.62500  0.62500  0.12500  1
 V  V4  1  0.62500  0.62500  0.62500  1
