CIF file written using JARVIS-Tools package.
data_As2Ir
_symmetry_space_group_name_H-M  'P2_1/c'
_cell_length_a       6.15913
_cell_length_b       6.1636
_cell_length_c       6.25903
_cell_angle_alpha    90
_cell_angle_beta     112.996
_cell_angle_gamma    90

_symmetry_Int_Tables_number  14
_chemical_formula_structural  As2Ir
_chemical_formula_sum  As8Ir4
_cell_volume  218.7261600623509
_cell_formula_units_Z  4
loop_
  _symmetry_equiv_pos_site_id
 _symmetry_equiv_pos_as_xyz
 1  'x, y, z'
loop_
 _atom_site_type_symbol
 _atom_site_label
 _atom_site_symmetry_multiplicity
 _atom_site_fract_x
 _atom_site_fract_y
 _atom_site_fract_z
 _atom_site_fract_occupancy
 As  As1  1  0.84607  0.12688  0.12617  1
 As  As2  1  0.15393  0.62688  0.37383  1
 As  As3  1  0.15393  0.87312  0.87383  1
 As  As4  1  0.84607  0.37312  0.62617  1
 As  As5  1  0.66157  0.62953  0.81636  1
 As  As6  1  0.33843  0.12953  0.68364  1
 As  As7  1  0.33843  0.37047  0.18364  1
 As  As8  1  0.66157  0.87047  0.31636  1
 Ir  Ir1  1  0.72791  0.50018  0.20884  1
 Ir  Ir2  1  0.27209  0.00018  0.29116  1
 Ir  Ir3  1  0.27209  0.49982  0.79116  1
 Ir  Ir4  1  0.72791  0.99982  0.70884  1
