CIF file written using JARVIS-Tools package.
data_VOF3
_symmetry_space_group_name_H-M  'P2_1/c'
_cell_length_a       4.49557
_cell_length_b       11.6069
_cell_length_c       4.67538
_cell_angle_alpha    90
_cell_angle_beta     90
_cell_angle_gamma    89.787

_symmetry_Int_Tables_number  14
_chemical_formula_structural  VOF3
_chemical_formula_sum  V4O4F2
_cell_volume  243.9565894253086
_cell_formula_units_Z  4
loop_
  _symmetry_equiv_pos_site_id
 _symmetry_equiv_pos_as_xyz
 1  'x, y, z'
loop_
 _atom_site_type_symbol
 _atom_site_label
 _atom_site_symmetry_multiplicity
 _atom_site_fract_x
 _atom_site_fract_y
 _atom_site_fract_z
 _atom_site_fract_occupancy
 F  F1  1  0.76831  0.79751  0.57958  1
 F  F2  1  0.29071  0.91713  0.43702  1
 F  F3  1  0.79071  0.41713  0.06298  1
 F  F4  1  0.22634  0.42548  0.42048  1
 F  F5  1  0.23169  0.20249  0.42042  1
 F  F6  1  0.20929  0.58287  0.93702  1
 F  F7  1  0.27366  0.07452  0.92048  1
 F  F8  1  0.72634  0.92548  0.07952  1
 F  F9  1  0.73169  0.70249  0.07958  1
 F  F10  1  0.70929  0.08287  0.56298  1
 F  F11  1  0.77366  0.57452  0.57952  1
 F  F12  1  0.26831  0.29751  0.92042  1
 O  O1  1  0.76564  0.19521  0.05036  1
 O  O2  1  0.73436  0.30479  0.55036  1
 O  O3  1  0.26564  0.69521  0.44964  1
 O  O4  1  0.23436  0.80479  0.94964  1
 V  V1  1  0.97902  0.32239  0.29254  1
 V  V2  1  0.52098  0.17761  0.79254  1
 V  V3  1  0.47902  0.82239  0.20746  1
 V  V4  1  0.02098  0.67761  0.70746  1
