CIF file written using JARVIS-Tools package.
data_Li2FeAsCO7
_symmetry_space_group_name_H-M  'P2_1/m'
_cell_length_a       5.01864
_cell_length_b       6.56082
_cell_length_c       8.58991
_cell_angle_alpha    90
_cell_angle_beta     92.4588
_cell_angle_gamma    90

_symmetry_Int_Tables_number  11
_chemical_formula_structural  Li2FeAsCO7
_chemical_formula_sum  Li4Fe2As2C2O4
_cell_volume  282.5743522417179
_cell_formula_units_Z  2
loop_
  _symmetry_equiv_pos_site_id
 _symmetry_equiv_pos_as_xyz
 1  'x, y, z'
loop_
 _atom_site_type_symbol
 _atom_site_label
 _atom_site_symmetry_multiplicity
 _atom_site_fract_x
 _atom_site_fract_y
 _atom_site_fract_z
 _atom_site_fract_occupancy
 As  As1  1  0.28102  0.75000  0.41766  1
 As  As2  1  0.71898  0.25000  0.58234  1
 C  C1  1  0.25697  0.25000  0.04781  1
 C  C2  1  0.74303  0.75000  0.95219  1
 Fe  Fe1  1  0.21994  0.25000  0.34479  1
 Fe  Fe2  1  0.78006  0.75000  0.65521  1
 Li  Li1  1  0.79296  0.48292  0.20403  1
 Li  Li2  1  0.79296  0.01708  0.20403  1
 Li  Li3  1  0.20704  0.51708  0.79597  1
 Li  Li4  1  0.20704  0.98292  0.79597  1
 O  O1  1  0.70558  0.75000  0.09723  1
 O  O2  1  0.97976  0.75000  0.89485  1
 O  O3  1  0.45604  0.25000  0.15285  1
 O  O4  1  0.17189  0.95588  0.31267  1
 O  O5  1  0.17189  0.54412  0.31267  1
 O  O6  1  0.02024  0.25000  0.10515  1
 O  O7  1  0.82811  0.04412  0.68733  1
 O  O8  1  0.37393  0.25000  0.55724  1
 O  O9  1  0.17598  0.75000  0.60649  1
 O  O10  1  0.82811  0.45588  0.68733  1
 O  O11  1  0.82402  0.25000  0.39351  1
 O  O12  1  0.54396  0.75000  0.84715  1
 O  O13  1  0.62607  0.75000  0.44276  1
 O  O14  1  0.29442  0.25000  0.90277  1
