CIF file written using JARVIS-Tools package.
data_HfS3
_symmetry_space_group_name_H-M  'P2_1/m'
_cell_length_a       5.12304
_cell_length_b       3.60455
_cell_length_c       9.01586
_cell_angle_alpha    90
_cell_angle_beta     97.2005
_cell_angle_gamma    90

_symmetry_Int_Tables_number  11
_chemical_formula_structural  HfS3
_chemical_formula_sum  Hf2S6
_cell_volume  165.17586681939605
_cell_formula_units_Z  2
loop_
  _symmetry_equiv_pos_site_id
 _symmetry_equiv_pos_as_xyz
 1  'x, y, z'
loop_
 _atom_site_type_symbol
 _atom_site_label
 _atom_site_symmetry_multiplicity
 _atom_site_fract_x
 _atom_site_fract_y
 _atom_site_fract_z
 _atom_site_fract_occupancy
 Hf  Hf1  1  0.71606  0.25000  0.34533  1
 Hf  Hf2  1  0.28394  0.75000  0.65467  1
 S  S1  1  0.12048  0.25000  0.83023  1
 S  S2  1  0.87952  0.75000  0.16977  1
 S  S3  1  0.76202  0.75000  0.55343  1
 S  S4  1  0.23798  0.25000  0.44657  1
 S  S5  1  0.47106  0.75000  0.17275  1
 S  S6  1  0.52894  0.25000  0.82725  1
