CIF file written using JARVIS-Tools package.
data_Ca2Sb
_symmetry_space_group_name_H-M  'I4/mmm'
_cell_length_a       4.72854
_cell_length_b       4.72855
_cell_length_c       8.98505
_cell_angle_alpha    105.256
_cell_angle_beta     105.256
_cell_angle_gamma    90

_symmetry_Int_Tables_number  139
_chemical_formula_structural  Ca2Sb
_chemical_formula_sum  Ca4Sb2
_cell_volume  186.46990874996408
_cell_formula_units_Z  2
loop_
  _symmetry_equiv_pos_site_id
 _symmetry_equiv_pos_as_xyz
 1  'x, y, z'
loop_
 _atom_site_type_symbol
 _atom_site_label
 _atom_site_symmetry_multiplicity
 _atom_site_fract_x
 _atom_site_fract_y
 _atom_site_fract_z
 _atom_site_fract_occupancy
 Ca  Ca1  1  0.66985  0.66985  0.33969  1
 Ca  Ca2  1  0.99482  0.49482  0.98964  1
 Ca  Ca3  1  0.31978  0.31978  0.63956  1
 Ca  Ca4  1  0.49482  0.99482  0.98964  1
 Sb  Sb1  1  0.85887  0.85887  0.71774  1
 Sb  Sb2  1  0.13076  0.13076  0.26153  1
