CIF file written using JARVIS-Tools package.
data_KIO4
_symmetry_space_group_name_H-M  'I4_1/a'
_cell_length_a       5.73433
_cell_length_b       5.73424
_cell_length_c       7.46333
_cell_angle_alpha    112.591
_cell_angle_beta     112.593
_cell_angle_gamma    90.0001

_symmetry_Int_Tables_number  88
_chemical_formula_structural  KIO4
_chemical_formula_sum  K2I2O8
_cell_volume  206.0316308272188
_cell_formula_units_Z  2
loop_
  _symmetry_equiv_pos_site_id
 _symmetry_equiv_pos_as_xyz
 1  'x, y, z'
loop_
 _atom_site_type_symbol
 _atom_site_label
 _atom_site_symmetry_multiplicity
 _atom_site_fract_x
 _atom_site_fract_y
 _atom_site_fract_z
 _atom_site_fract_occupancy
 I  I1  1  0.87500  0.62500  0.75000  1
 I  I2  1  0.12500  0.37500  0.25000  1
 K  K1  1  0.62500  0.87500  0.25000  1
 K  K2  1  0.37500  0.12500  0.75000  1
 O  O1  1  0.93131  0.76697  0.59002  1
 O  O2  1  0.82305  0.43131  0.09003  1
 O  O3  1  0.26698  0.15871  0.09003  1
 O  O4  1  0.65872  0.32305  0.59003  1
 O  O5  1  0.34128  0.67695  0.40997  1
 O  O6  1  0.73302  0.84129  0.90997  1
 O  O7  1  0.17695  0.56869  0.90997  1
 O  O8  1  0.06869  0.23303  0.40998  1
