CIF file written using JARVIS-Tools package.
data_Ba2BiSbO6
_symmetry_space_group_name_H-M  'C2/m'
_cell_length_a       6.0864
_cell_length_b       6.0902
_cell_length_c       6.11716
_cell_angle_alpha    60.5519
_cell_angle_beta     60.1662
_cell_angle_gamma    60.0205

_symmetry_Int_Tables_number  12
_chemical_formula_structural  Ba2BiSbO6
_chemical_formula_sum  Ba2BiSbO6
_cell_volume  161.22097748583138
_cell_formula_units_Z  1
loop_
  _symmetry_equiv_pos_site_id
 _symmetry_equiv_pos_as_xyz
 1  'x, y, z'
loop_
 _atom_site_type_symbol
 _atom_site_label
 _atom_site_symmetry_multiplicity
 _atom_site_fract_x
 _atom_site_fract_y
 _atom_site_fract_z
 _atom_site_fract_occupancy
 Ba  Ba1  1  0.24882  0.24774  0.25462  1
 Ba  Ba2  1  0.75118  0.75226  0.74538  1
 Bi  Bi1  1  0.00000  0.00000  0.00000  1
 O  O1  1  0.29730  0.23842  0.69838  1
 O  O2  1  0.23411  0.76158  0.30162  1
 O  O3  1  0.70270  0.76158  0.30162  1
 O  O4  1  0.76589  0.23842  0.69838  1
 O  O5  1  0.73135  0.32732  0.20998  1
 O  O6  1  0.26865  0.67268  0.79002  1
 Sb  Sb1  1  0.50000  0.50000  0.50000  1
