CIF file written using JARVIS-Tools package.
data_CaIn2Cu
_symmetry_space_group_name_H-M  'Cmcm'
_cell_length_a       4.44816
_cell_length_b       5.84908
_cell_length_c       7.49774
_cell_angle_alpha    90
_cell_angle_beta     90
_cell_angle_gamma    112.349

_symmetry_Int_Tables_number  63
_chemical_formula_structural  CaIn2Cu
_chemical_formula_sum  Ca2In4Cu2
_cell_volume  180.4205670617739
_cell_formula_units_Z  2
loop_
  _symmetry_equiv_pos_site_id
 _symmetry_equiv_pos_as_xyz
 1  'x, y, z'
loop_
 _atom_site_type_symbol
 _atom_site_label
 _atom_site_symmetry_multiplicity
 _atom_site_fract_x
 _atom_site_fract_y
 _atom_site_fract_z
 _atom_site_fract_occupancy
 Ca  Ca1  1  0.06837  0.13675  0.75000  1
 Ca  Ca2  1  0.93163  0.86325  0.25000  1
 Cu  Cu1  1  0.78552  0.57105  0.75000  1
 Cu  Cu2  1  0.21448  0.42895  0.25000  1
 In  In1  1  0.35826  0.71652  0.94987  1
 In  In2  1  0.64174  0.28348  0.05013  1
 In  In3  1  0.64174  0.28348  0.44987  1
 In  In4  1  0.35826  0.71652  0.55013  1
