CIF file written using JARVIS-Tools package.
data_HoMgIn
_symmetry_space_group_name_H-M  'P-62m'
_cell_length_a       7.4684
_cell_length_b       7.4684
_cell_length_c       4.63318
_cell_angle_alpha    90
_cell_angle_beta     90
_cell_angle_gamma    120

_symmetry_Int_Tables_number  189
_chemical_formula_structural  HoMgIn
_chemical_formula_sum  Ho3Mg3In3
_cell_volume  223.80243096988164
_cell_formula_units_Z  3
loop_
  _symmetry_equiv_pos_site_id
 _symmetry_equiv_pos_as_xyz
 1  'x, y, z'
loop_
 _atom_site_type_symbol
 _atom_site_label
 _atom_site_symmetry_multiplicity
 _atom_site_fract_x
 _atom_site_fract_y
 _atom_site_fract_z
 _atom_site_fract_occupancy
 Ho  Ho1  1  -0.00000  0.56605  0.00000  1
 Ho  Ho2  1  0.43395  0.43395  0.00000  1
 Ho  Ho3  1  0.56605  -0.00000  0.00000  1
 In  In1  1  0.66667  0.33333  0.50000  1
 In  In2  1  0.00000  0.00000  0.00000  1
 In  In3  1  0.33333  0.66667  0.50000  1
 Mg  Mg1  1  0.75765  0.75765  0.50000  1
 Mg  Mg2  1  0.24235  0.00000  0.50000  1
 Mg  Mg3  1  0.00000  0.24235  0.50000  1
