CIF file written using JARVIS-Tools package.
data_ZnP2O6
_symmetry_space_group_name_H-M  'C2/c'
_cell_length_a       5.00974
_cell_length_b       6.64291
_cell_length_c       6.64291
_cell_angle_alpha    84.5053
_cell_angle_beta     76.2183
_cell_angle_gamma    76.2183

_symmetry_Int_Tables_number  15
_chemical_formula_structural  ZnP2O6
_chemical_formula_sum  Zn2P4O2
_cell_volume  208.3468679677695
_cell_formula_units_Z  2
loop_
  _symmetry_equiv_pos_site_id
 _symmetry_equiv_pos_as_xyz
 1  'x, y, z'
loop_
 _atom_site_type_symbol
 _atom_site_label
 _atom_site_symmetry_multiplicity
 _atom_site_fract_x
 _atom_site_fract_y
 _atom_site_fract_z
 _atom_site_fract_occupancy
 O  O1  1  0.45422  0.35889  0.34618  1
 O  O2  1  0.18621  0.59428  0.10774  1
 O  O3  1  0.68621  0.10774  0.59428  1
 O  O4  1  0.81379  0.40572  0.89226  1
 O  O5  1  0.15995  0.94833  0.80012  1
 O  O6  1  0.34005  0.19988  0.05167  1
 O  O7  1  0.95422  0.34618  0.35889  1
 O  O8  1  0.31379  0.89226  0.40572  1
 O  O9  1  0.04578  0.65382  0.64111  1
 O  O10  1  0.65995  0.80012  0.94833  1
 O  O11  1  0.84005  0.05167  0.19988  1
 O  O12  1  0.54578  0.64111  0.65382  1
 P  P1  1  0.26321  0.80279  0.62212  1
 P  P2  1  0.23679  0.37788  0.19721  1
 P  P3  1  0.73679  0.19721  0.37788  1
 P  P4  1  0.76321  0.62212  0.80279  1
 Zn  Zn1  1  0.25000  0.88196  0.11804  1
 Zn  Zn2  1  0.75000  0.11804  0.88196  1
