CIF file written using JARVIS-Tools package.
data_CaMo2O4
_symmetry_space_group_name_H-M  'R3m'
_cell_length_a       6.79666
_cell_length_b       5.88818
_cell_length_c       5.88817
_cell_angle_alpha    60
_cell_angle_beta     64.3312
_cell_angle_gamma    64.3312

_symmetry_Int_Tables_number  160
_chemical_formula_structural  CaMo2O4
_chemical_formula_sum  Ca2Mo4O8
_cell_volume  176.712031777812
_cell_formula_units_Z  2
loop_
  _symmetry_equiv_pos_site_id
 _symmetry_equiv_pos_as_xyz
 1  'x, y, z'
loop_
 _atom_site_type_symbol
 _atom_site_label
 _atom_site_symmetry_multiplicity
 _atom_site_fract_x
 _atom_site_fract_y
 _atom_site_fract_z
 _atom_site_fract_occupancy
 Ca  Ca1  1  0.04223  0.98592  0.98592  1
 Ca  Ca2  1  0.10601  0.63133  0.63133  1
 Mo  Mo1  1  0.22011  0.25996  0.25996  1
 Mo  Mo2  1  0.62943  0.15974  0.60542  1
 Mo  Mo3  1  0.62943  0.60542  0.15974  1
 Mo  Mo4  1  0.62943  0.60542  0.60542  1
 O  O1  1  0.40460  0.36964  0.36964  1
 O  O2  1  0.40460  0.36964  0.85612  1
 O  O3  1  0.40460  0.85612  0.36964  1
 O  O4  1  0.87836  0.37388  0.37388  1
 O  O5  1  0.44752  0.85083  0.85083  1
 O  O6  1  0.81790  0.41512  0.88349  1
 O  O7  1  0.81790  0.88349  0.41512  1
 O  O8  1  0.81790  0.88349  0.88349  1
