CIF file written using JARVIS-Tools package.
data_AlVO3
_symmetry_space_group_name_H-M  'Pnma'
_cell_length_a       5.00415
_cell_length_b       5.18719
_cell_length_c       6.96608
_cell_angle_alpha    90
_cell_angle_beta     90
_cell_angle_gamma    90

_symmetry_Int_Tables_number  62
_chemical_formula_structural  AlVO3
_chemical_formula_sum  Al4V4O2
_cell_volume  180.82163292244482
_cell_formula_units_Z  4
loop_
  _symmetry_equiv_pos_site_id
 _symmetry_equiv_pos_as_xyz
 1  'x, y, z'
loop_
 _atom_site_type_symbol
 _atom_site_label
 _atom_site_symmetry_multiplicity
 _atom_site_fract_x
 _atom_site_fract_y
 _atom_site_fract_z
 _atom_site_fract_occupancy
 Al  Al1  1  0.00000  0.50000  0.00000  1
 Al  Al2  1  0.00000  0.50000  0.50000  1
 Al  Al3  1  0.50000  0.00000  0.00000  1
 Al  Al4  1  0.50000  0.00000  0.50000  1
 O  O1  1  0.11802  0.43433  0.25000  1
 O  O2  1  0.83231  0.82594  0.44318  1
 O  O3  1  0.16769  0.17406  0.94318  1
 O  O4  1  0.33231  0.67406  0.94318  1
 O  O5  1  0.16769  0.17406  0.55682  1
 O  O6  1  0.38198  0.93433  0.25000  1
 O  O7  1  0.61802  0.06567  0.75000  1
 O  O8  1  0.66769  0.32594  0.05682  1
 O  O9  1  0.33231  0.67406  0.55682  1
 O  O10  1  0.83231  0.82594  0.05682  1
 O  O11  1  0.66769  0.32594  0.44318  1
 O  O12  1  0.88198  0.56567  0.75000  1
 V  V1  1  0.00758  0.05865  0.25000  1
 V  V2  1  0.49242  0.55865  0.25000  1
 V  V3  1  0.50758  0.44135  0.75000  1
 V  V4  1  0.99242  0.94135  0.75000  1
