CIF file written using JARVIS-Tools package.
data_InGaTe2
_symmetry_space_group_name_H-M  'I4/mcm'
_cell_length_a       6.9092
_cell_length_b       6.90921
_cell_length_c       6.9092
_cell_angle_alpha    104.227
_cell_angle_beta     104.227
_cell_angle_gamma    120.562

_symmetry_Int_Tables_number  140
_chemical_formula_structural  InGaTe2
_chemical_formula_sum  In2Ga2Te4
_cell_volume  246.6495695856206
_cell_formula_units_Z  2
loop_
  _symmetry_equiv_pos_site_id
 _symmetry_equiv_pos_as_xyz
 1  'x, y, z'
loop_
 _atom_site_type_symbol
 _atom_site_label
 _atom_site_symmetry_multiplicity
 _atom_site_fract_x
 _atom_site_fract_y
 _atom_site_fract_z
 _atom_site_fract_occupancy
 Ga  Ga1  1  0.25000  0.75000  0.50000  1
 Ga  Ga2  1  0.75000  0.25000  0.50000  1
 In  In1  1  0.75000  0.75000  0.00000  1
 In  In2  1  0.25000  0.25000  0.00000  1
 Te  Te1  1  0.67256  0.17256  0.84512  1
 Te  Te2  1  0.17256  0.32744  0.50000  1
 Te  Te3  1  0.82744  0.67256  0.50000  1
 Te  Te4  1  0.32744  0.82744  0.15488  1
