CIF file written using JARVIS-Tools package.
data_MgCo2O4
_symmetry_space_group_name_H-M  'Imma'
_cell_length_a       5.80328
_cell_length_b       5.80328
_cell_length_c       5.78043
_cell_angle_alpha    60.1301
_cell_angle_beta     60.1301
_cell_angle_gamma    60.1629

_symmetry_Int_Tables_number  74
_chemical_formula_structural  MgCo2O4
_chemical_formula_sum  Mg2Co4O8
_cell_volume  138.09475503958035
_cell_formula_units_Z  2
loop_
  _symmetry_equiv_pos_site_id
 _symmetry_equiv_pos_as_xyz
 1  'x, y, z'
loop_
 _atom_site_type_symbol
 _atom_site_label
 _atom_site_symmetry_multiplicity
 _atom_site_fract_x
 _atom_site_fract_y
 _atom_site_fract_z
 _atom_site_fract_occupancy
 Co  Co1  1  0.99272  0.99272  0.00728  1
 Co  Co2  1  0.25728  0.25728  0.24272  1
 Co  Co3  1  0.62500  0.62500  0.12500  1
 Co  Co4  1  0.62500  0.62500  0.62500  1
 Mg  Mg1  1  0.12500  0.62500  0.62500  1
 Mg  Mg2  1  0.62500  0.12500  0.62500  1
 O  O1  1  0.39302  0.39302  0.36445  1
 O  O2  1  0.40099  0.85015  0.37443  1
 O  O3  1  0.39302  0.39302  0.84950  1
 O  O4  1  0.85015  0.40099  0.37443  1
 O  O5  1  0.39985  0.84901  0.87557  1
 O  O6  1  0.84901  0.39985  0.87557  1
 O  O7  1  0.85698  0.85698  0.40050  1
 O  O8  1  0.85698  0.85698  0.88555  1
