CIF file written using JARVIS-Tools package.
data_SbPbClO2
_symmetry_space_group_name_H-M  'Cmcm'
_cell_length_a       5.49644
_cell_length_b       5.64813
_cell_length_c       6.77909
_cell_angle_alpha    114.619
_cell_angle_beta     90
_cell_angle_gamma    90

_symmetry_Int_Tables_number  63
_chemical_formula_structural  SbPbClO2
_chemical_formula_sum  Sb2Pb2Cl2O4
_cell_volume  191.3229371837024
_cell_formula_units_Z  2
loop_
  _symmetry_equiv_pos_site_id
 _symmetry_equiv_pos_as_xyz
 1  'x, y, z'
loop_
 _atom_site_type_symbol
 _atom_site_label
 _atom_site_symmetry_multiplicity
 _atom_site_fract_x
 _atom_site_fract_y
 _atom_site_fract_z
 _atom_site_fract_occupancy
 Cl  Cl1  1  0.75000  0.74369  0.48737  1
 Cl  Cl2  1  0.25000  0.25631  0.51263  1
 O  O1  1  0.50000  0.22774  -0.00000  1
 O  O2  1  0.00000  0.77226  0.00000  1
 O  O3  1  0.50000  0.77226  0.00000  1
 O  O4  1  0.00000  0.22774  -0.00000  1
 Pb  Pb1  1  0.25000  0.61772  0.23544  1
 Pb  Pb2  1  0.75000  0.38228  0.76456  1
 Sb  Sb1  1  0.25000  0.91903  0.83805  1
 Sb  Sb2  1  0.75000  0.08097  0.16195  1
