CIF file written using JARVIS-Tools package.
data_Y6OsI10
_symmetry_space_group_name_H-M  'P-1'
_cell_length_a       7.6232
_cell_length_b       9.56779
_cell_length_c       9.60878
_cell_angle_alpha    107.722
_cell_angle_beta     97.1977
_cell_angle_gamma    105.226

_symmetry_Int_Tables_number  2
_chemical_formula_structural  Y6OsI10
_chemical_formula_sum  Y6OsI0
_cell_volume  627.878085303664
_cell_formula_units_Z  1
loop_
  _symmetry_equiv_pos_site_id
 _symmetry_equiv_pos_as_xyz
 1  'x, y, z'
loop_
 _atom_site_type_symbol
 _atom_site_label
 _atom_site_symmetry_multiplicity
 _atom_site_fract_x
 _atom_site_fract_y
 _atom_site_fract_z
 _atom_site_fract_occupancy
 I  I1  1  0.45143  0.81237  0.09323  1
 I  I2  1  0.36542  0.46345  0.27716  1
 I  I3  1  0.79555  0.26967  0.35935  1
 I  I4  1  0.27118  0.09023  0.46600  1
 I  I5  1  0.63458  0.53655  0.72284  1
 I  I6  1  0.08904  0.37138  0.81563  1
 I  I7  1  0.91096  0.62862  0.18437  1
 I  I8  1  0.72882  0.90977  0.53400  1
 I  I9  1  0.20445  0.73033  0.64065  1
 I  I10  1  0.54857  0.18763  0.90677  1
 Os  Os1  1  0.00000  0.00000  0.00000  1
 Y  Y1  1  0.64016  0.86896  0.82901  1
 Y  Y2  1  0.35984  0.13104  0.17099  1
 Y  Y3  1  0.02670  0.71201  0.91335  1
 Y  Y4  1  0.97330  0.28799  0.08665  1
 Y  Y5  1  0.88633  0.96119  0.24553  1
 Y  Y6  1  0.11367  0.03881  0.75447  1
