CIF file written using JARVIS-Tools package.
data_Sr2CoO4
_symmetry_space_group_name_H-M  'I4/mmm'
_cell_length_a       3.78574
_cell_length_b       3.78574
_cell_length_c       6.82816
_cell_angle_alpha    106.094
_cell_angle_beta     106.094
_cell_angle_gamma    90

_symmetry_Int_Tables_number  139
_chemical_formula_structural  Sr2CoO4
_chemical_formula_sum  Sr2CoO4
_cell_volume  90.02577660182605
_cell_formula_units_Z  1
loop_
  _symmetry_equiv_pos_site_id
 _symmetry_equiv_pos_as_xyz
 1  'x, y, z'
loop_
 _atom_site_type_symbol
 _atom_site_label
 _atom_site_symmetry_multiplicity
 _atom_site_fract_x
 _atom_site_fract_y
 _atom_site_fract_z
 _atom_site_fract_occupancy
 Co  Co1  1  0.00000  0.00000  0.00000  1
 O  O1  1  0.84272  0.84272  0.68544  1
 O  O2  1  0.15728  0.15728  0.31456  1
 O  O3  1  0.00000  0.50000  0.00000  1
 O  O4  1  0.50000  -0.00000  0.00000  1
 Sr  Sr1  1  0.64366  0.64366  0.28732  1
 Sr  Sr2  1  0.35634  0.35634  0.71268  1
