CIF file written using JARVIS-Tools package.
data_NpAs2
_symmetry_space_group_name_H-M  'P4/nmm'
_cell_length_a       3.97956
_cell_length_b       3.97956
_cell_length_c       8.1036
_cell_angle_alpha    90
_cell_angle_beta     90
_cell_angle_gamma    90

_symmetry_Int_Tables_number  129
_chemical_formula_structural  NpAs2
_chemical_formula_sum  Np2As4
_cell_volume  128.3355644141247
_cell_formula_units_Z  2
loop_
  _symmetry_equiv_pos_site_id
 _symmetry_equiv_pos_as_xyz
 1  'x, y, z'
loop_
 _atom_site_type_symbol
 _atom_site_label
 _atom_site_symmetry_multiplicity
 _atom_site_fract_x
 _atom_site_fract_y
 _atom_site_fract_z
 _atom_site_fract_occupancy
 As  As1  1  0.50000  0.00000  0.35789  1
 As  As2  1  0.00000  0.50000  0.64211  1
 As  As3  1  0.00000  0.00000  0.00000  1
 As  As4  1  0.50000  0.50000  0.00000  1
 Np  Np1  1  0.50000  0.00000  0.71549  1
 Np  Np2  1  0.00000  0.50000  0.28451  1
