CIF file written using JARVIS-Tools package.
data_YbP5
_symmetry_space_group_name_H-M  'P2_1'
_cell_length_a       5.571
_cell_length_b       5.51262
_cell_length_c       16.7102
_cell_angle_alpha    90
_cell_angle_beta     90
_cell_angle_gamma    103.329

_symmetry_Int_Tables_number  4
_chemical_formula_structural  YbP5
_chemical_formula_sum  Yb4P20
_cell_volume  499.3616449938006
_cell_formula_units_Z  4
loop_
  _symmetry_equiv_pos_site_id
 _symmetry_equiv_pos_as_xyz
 1  'x, y, z'
loop_
 _atom_site_type_symbol
 _atom_site_label
 _atom_site_symmetry_multiplicity
 _atom_site_fract_x
 _atom_site_fract_y
 _atom_site_fract_z
 _atom_site_fract_occupancy
 P  P1  1  0.66602  0.35108  0.59049  1
 P  P2  1  0.71889  0.82727  0.34069  1
 P  P3  1  0.26356  0.78685  0.86667  1
 P  P4  1  0.42733  0.79665  0.67807  1
 P  P5  1  0.78637  0.87356  0.74046  1
 P  P6  1  0.65924  0.77710  0.86469  1
 P  P7  1  0.28111  0.17273  0.84069  1
 P  P8  1  0.41261  0.28043  0.06072  1
 P  P9  1  0.65821  0.83049  0.15757  1
 P  P10  1  0.66054  0.37242  0.87254  1
 P  P11  1  0.73644  0.21315  0.36667  1
 P  P12  1  0.77015  0.33412  0.99753  1
 P  P13  1  0.33398  0.64892  0.09049  1
 P  P14  1  0.58739  0.71957  0.56072  1
 P  P15  1  0.34076  0.22290  0.36469  1
 P  P16  1  0.33946  0.62758  0.37254  1
 P  P17  1  0.57267  0.20335  0.17807  1
 P  P18  1  0.34179  0.16951  0.65757  1
 P  P19  1  0.21363  0.12644  0.24046  1
 P  P20  1  0.22985  0.66588  0.49753  1
 Yb  Yb1  1  0.01365  0.57776  0.23651  1
 Yb  Yb2  1  0.97323  0.88461  0.00815  1
 Yb  Yb3  1  0.98635  0.42224  0.73651  1
 Yb  Yb4  1  0.02677  0.11539  0.50815  1
