CIF file written using JARVIS-Tools package.
data_Cu2SnHgSe4
_symmetry_space_group_name_H-M  'I-42m'
_cell_length_a       5.9214
_cell_length_b       5.9214
_cell_length_c       7.14666
_cell_angle_alpha    114.474
_cell_angle_beta     114.474
_cell_angle_gamma    90

_symmetry_Int_Tables_number  121
_chemical_formula_structural  Cu2SnHgSe4
_chemical_formula_sum  Cu2SnHgSe4
_cell_volume  203.0729090021427
_cell_formula_units_Z  1
loop_
  _symmetry_equiv_pos_site_id
 _symmetry_equiv_pos_as_xyz
 1  'x, y, z'
loop_
 _atom_site_type_symbol
 _atom_site_label
 _atom_site_symmetry_multiplicity
 _atom_site_fract_x
 _atom_site_fract_y
 _atom_site_fract_z
 _atom_site_fract_occupancy
 Cu  Cu1  1  0.25000  0.75000  0.50000  1
 Cu  Cu2  1  0.75000  0.25000  0.50000  1
 Hg  Hg1  1  0.00000  0.00000  0.00000  1
 Se  Se1  1  0.39923  0.39923  0.28516  1
 Se  Se2  1  0.88594  0.88594  0.28516  1
 Se  Se3  1  0.11406  0.60077  0.71484  1
 Se  Se4  1  0.60077  0.11406  0.71484  1
 Sn  Sn1  1  0.50000  0.50000  0.00000  1
