CIF file written using JARVIS-Tools package.
data_VAgHgO4
_symmetry_space_group_name_H-M  'C2'
_cell_length_a       5.49528
_cell_length_b       5.90657
_cell_length_c       7.15819
_cell_angle_alpha    97.3955
_cell_angle_beta     90
_cell_angle_gamma    117.722

_symmetry_Int_Tables_number  5
_chemical_formula_structural  VAgHgO4
_chemical_formula_sum  V2Ag2Hg2O8
_cell_volume  203.48662257035386
_cell_formula_units_Z  2
loop_
  _symmetry_equiv_pos_site_id
 _symmetry_equiv_pos_as_xyz
 1  'x, y, z'
loop_
 _atom_site_type_symbol
 _atom_site_label
 _atom_site_symmetry_multiplicity
 _atom_site_fract_x
 _atom_site_fract_y
 _atom_site_fract_z
 _atom_site_fract_occupancy
 Ag  Ag1  1  0.35541  0.72921  0.28365  1
 Ag  Ag2  1  0.62621  0.27079  0.71635  1
 Hg  Hg1  1  0.00614  -0.00000  -0.00000  1
 Hg  Hg2  1  0.96576  -0.00000  0.50000  1
 O  O1  1  0.22611  0.73214  0.98003  1
 O  O2  1  0.49397  0.26786  0.01997  1
 O  O3  1  0.49497  0.23584  0.40592  1
 O  O4  1  0.25913  0.76416  0.59408  1
 O  O5  1  0.08267  0.27675  0.73524  1
 O  O6  1  0.80592  0.72325  0.26476  1
 O  O7  1  0.95713  0.28925  0.21687  1
 O  O8  1  0.66788  0.71075  0.78313  1
 V  V1  1  0.31681  0.62533  0.77182  1
 V  V2  1  0.69147  0.37467  0.22818  1
