CIF file written using JARVIS-Tools package.
data_BaGe2S5
_symmetry_space_group_name_H-M  'Fd-3m'
_cell_length_a       10.6445
_cell_length_b       10.6445
_cell_length_c       10.6445
_cell_angle_alpha    60
_cell_angle_beta     60
_cell_angle_gamma    60

_symmetry_Int_Tables_number  227
_chemical_formula_structural  BaGe2S5
_chemical_formula_sum  Ba4Ge8S20
_cell_volume  852.8360840217377
_cell_formula_units_Z  4
loop_
  _symmetry_equiv_pos_site_id
 _symmetry_equiv_pos_as_xyz
 1  'x, y, z'
loop_
 _atom_site_type_symbol
 _atom_site_label
 _atom_site_symmetry_multiplicity
 _atom_site_fract_x
 _atom_site_fract_y
 _atom_site_fract_z
 _atom_site_fract_occupancy
 Ba  Ba1  1  0.50000  0.50000  0.50000  1
 Ba  Ba2  1  -0.00000  0.50000  0.50000  1
 Ba  Ba3  1  0.50000  0.00000  0.50000  1
 Ba  Ba4  1  0.50000  0.50000  -0.00000  1
 Ge  Ge1  1  0.79104  0.79104  0.79104  1
 Ge  Ge2  1  0.20896  0.87311  0.20896  1
 Ge  Ge3  1  0.87311  0.20896  0.20896  1
 Ge  Ge4  1  0.20896  0.20896  0.87311  1
 Ge  Ge5  1  0.12689  0.79104  0.79104  1
 Ge  Ge6  1  0.79104  0.79104  0.12689  1
 Ge  Ge7  1  0.20896  0.20896  0.20896  1
 Ge  Ge8  1  0.79104  0.12689  0.79104  1
 S  S1  1  0.69918  0.05082  0.69918  1
 S  S2  1  0.69918  0.69918  0.05082  1
 S  S3  1  0.30082  0.94918  0.94918  1
 S  S4  1  0.94918  0.30082  0.94918  1
 S  S5  1  0.30082  0.94918  0.30082  1
 S  S6  1  0.94918  0.30082  0.30082  1
 S  S7  1  0.05082  0.05082  0.69918  1
 S  S8  1  0.05082  0.69918  0.05082  1
 S  S9  1  0.05082  0.69918  0.69918  1
 S  S10  1  0.62346  0.29218  0.29218  1
 S  S11  1  0.30082  0.30082  0.94918  1
 S  S12  1  0.29218  0.29218  0.29218  1
 S  S13  1  0.70782  0.70782  0.37654  1
 S  S14  1  0.94918  0.94918  0.30082  1
 S  S15  1  0.37654  0.70782  0.70782  1
 S  S16  1  0.29218  0.62346  0.29218  1
 S  S17  1  0.29218  0.29218  0.62346  1
 S  S18  1  0.70782  0.70782  0.70782  1
 S  S19  1  0.69918  0.05082  0.05082  1
 S  S20  1  0.70782  0.37654  0.70782  1
