CIF file written using JARVIS-Tools package.
data_TlI3
_symmetry_space_group_name_H-M  'Pnma'
_cell_length_a       6.45372
_cell_length_b       9.51847
_cell_length_c       10.4793
_cell_angle_alpha    90
_cell_angle_beta     90
_cell_angle_gamma    90

_symmetry_Int_Tables_number  62
_chemical_formula_structural  TlI3
_chemical_formula_sum  Tl4I2
_cell_volume  643.7372653243314
_cell_formula_units_Z  4
loop_
  _symmetry_equiv_pos_site_id
 _symmetry_equiv_pos_as_xyz
 1  'x, y, z'
loop_
 _atom_site_type_symbol
 _atom_site_label
 _atom_site_symmetry_multiplicity
 _atom_site_fract_x
 _atom_site_fract_y
 _atom_site_fract_z
 _atom_site_fract_occupancy
 I  I1  1  0.25000  0.33781  0.14899  1
 I  I2  1  0.75000  0.66219  0.85101  1
 I  I3  1  0.75000  0.83781  0.35101  1
 I  I4  1  0.25000  0.16219  0.64899  1
 I  I5  1  0.25000  0.53987  0.37590  1
 I  I6  1  0.75000  0.46013  0.62410  1
 I  I7  1  0.75000  0.03987  0.12410  1
 I  I8  1  0.25000  0.96013  0.87590  1
 I  I9  1  0.25000  0.73747  0.58593  1
 I  I10  1  0.75000  0.26253  0.41407  1
 I  I11  1  0.75000  0.23747  0.91407  1
 I  I12  1  0.25000  0.76253  0.08593  1
 Tl  Tl1  1  0.25000  0.02273  0.33278  1
 Tl  Tl2  1  0.75000  0.97727  0.66722  1
 Tl  Tl3  1  0.75000  0.52273  0.16722  1
 Tl  Tl4  1  0.25000  0.47727  0.83278  1
