CIF file written using JARVIS-Tools package.
data_K2FeC4O4
_symmetry_space_group_name_H-M  'Fddd'
_cell_length_a       5.6074
_cell_length_b       6.33195
_cell_length_c       11.7375
_cell_angle_alpha    83.9301
_cell_angle_beta     76.1837
_cell_angle_gamma    63.7183

_symmetry_Int_Tables_number  70
_chemical_formula_structural  K2FeC4O4
_chemical_formula_sum  K4Fe2C8O8
_cell_volume  362.8576302532869
_cell_formula_units_Z  2
loop_
  _symmetry_equiv_pos_site_id
 _symmetry_equiv_pos_as_xyz
 1  'x, y, z'
loop_
 _atom_site_type_symbol
 _atom_site_label
 _atom_site_symmetry_multiplicity
 _atom_site_fract_x
 _atom_site_fract_y
 _atom_site_fract_z
 _atom_site_fract_occupancy
 C  C1  1  0.20462  0.89997  0.84076  1
 C  C2  1  0.95462  0.60001  0.84074  1
 C  C3  1  0.55463  0.39999  0.34074  1
 C  C4  1  0.89542  0.89997  0.65924  1
 C  C5  1  0.79538  0.10003  0.15924  1
 C  C6  1  0.10458  0.10003  0.34076  1
 C  C7  1  0.44537  0.60001  0.65926  1
 C  C8  1  0.04538  0.39999  0.15926  1
 Fe  Fe1  1  0.12501  0.74999  0.75000  1
 Fe  Fe2  1  0.87499  0.25001  0.25000  1
 K  K1  1  0.44707  0.75000  0.10590  1
 K  K2  1  0.55293  0.25000  0.89410  1
 K  K3  1  0.19707  0.25000  0.60590  1
 K  K4  1  0.80293  0.75000  0.39410  1
 O  O1  1  0.66711  0.50954  0.59724  1
 O  O2  1  0.26433  0.00956  0.40277  1
 O  O3  1  0.17665  0.49046  0.09724  1
 O  O4  1  0.73567  0.99044  0.59723  1
 O  O5  1  0.27389  0.99044  0.90277  1
 O  O6  1  0.82335  0.50954  0.90276  1
 O  O7  1  0.72611  0.00956  0.09723  1
 O  O8  1  0.33289  0.49046  0.40276  1
