CIF file written using JARVIS-Tools package.
data_Na3Nd5Cl18
_symmetry_space_group_name_H-M  'P-6'
_cell_length_a       7.54862
_cell_length_b       7.54862
_cell_length_c       12.6851
_cell_angle_alpha    90
_cell_angle_beta     90
_cell_angle_gamma    120

_symmetry_Int_Tables_number  174
_chemical_formula_structural  Na3Nd5Cl18
_chemical_formula_sum  Na3Nd5Cl8
_cell_volume  625.9804783890472
_cell_formula_units_Z  1
loop_
  _symmetry_equiv_pos_site_id
 _symmetry_equiv_pos_as_xyz
 1  'x, y, z'
loop_
 _atom_site_type_symbol
 _atom_site_label
 _atom_site_symmetry_multiplicity
 _atom_site_fract_x
 _atom_site_fract_y
 _atom_site_fract_z
 _atom_site_fract_occupancy
 Cl  Cl1  1  0.91906  0.61231  0.67317  1
 Cl  Cl2  1  0.39036  0.30508  0.00000  1
 Cl  Cl3  1  0.38769  0.30675  0.32683  1
 Cl  Cl4  1  0.38769  0.30675  0.67317  1
 Cl  Cl5  1  0.69492  0.08527  0.00000  1
 Cl  Cl6  1  0.61409  0.70089  0.16426  1
 Cl  Cl7  1  0.69325  0.08094  0.67317  1
 Cl  Cl8  1  0.08680  0.38591  0.83574  1
 Cl  Cl9  1  0.69325  0.08094  0.32683  1
 Cl  Cl10  1  0.09437  0.38520  0.50000  1
 Cl  Cl11  1  0.91473  0.60964  0.00000  1
 Cl  Cl12  1  0.91906  0.61231  0.32683  1
 Cl  Cl13  1  0.61480  0.70917  0.50000  1
 Cl  Cl14  1  0.29911  0.91320  0.83574  1
 Cl  Cl15  1  0.29911  0.91320  0.16426  1
 Cl  Cl16  1  0.29083  0.90563  0.50000  1
 Cl  Cl17  1  0.61409  0.70089  0.83574  1
 Cl  Cl18  1  0.08680  0.38591  0.16426  1
 Na  Na1  1  0.00000  0.00000  0.72673  1
 Na  Na2  1  0.00000  0.00000  0.27327  1
 Na  Na3  1  0.66667  0.33333  0.50000  1
 Nd  Nd1  1  0.33333  0.66667  0.65947  1
 Nd  Nd2  1  0.33333  0.66667  0.34053  1
 Nd  Nd3  1  0.33333  0.66667  0.00000  1
 Nd  Nd4  1  0.66667  0.33333  0.16872  1
 Nd  Nd5  1  0.66667  0.33333  0.83128  1
