CIF file written using JARVIS-Tools package.
data_Bi2Rh3S2
_symmetry_space_group_name_H-M  'C2/m'
_cell_length_a       7.13075
_cell_length_b       7.13075
_cell_length_c       7.21143
_cell_angle_alpha    109.391
_cell_angle_beta     110.79
_cell_angle_gamma    107.774

_symmetry_Int_Tables_number  12
_chemical_formula_structural  Bi2Rh3S2
_chemical_formula_sum  Bi4Rh6S4
_cell_volume  283.71060427795965
_cell_formula_units_Z  2
loop_
  _symmetry_equiv_pos_site_id
 _symmetry_equiv_pos_as_xyz
 1  'x, y, z'
loop_
 _atom_site_type_symbol
 _atom_site_label
 _atom_site_symmetry_multiplicity
 _atom_site_fract_x
 _atom_site_fract_y
 _atom_site_fract_z
 _atom_site_fract_occupancy
 Bi  Bi1  1  0.25285  0.99429  0.24714  1
 Bi  Bi2  1  0.74865  0.49788  0.24653  1
 Bi  Bi3  1  0.25135  0.50212  0.75347  1
 Bi  Bi4  1  0.74715  0.00571  0.75286  1
 Rh  Rh1  1  -0.00000  0.50000  0.00000  1
 Rh  Rh2  1  0.24625  0.24625  -0.00000  1
 Rh  Rh3  1  0.75375  0.75375  -0.00000  1
 Rh  Rh4  1  0.50000  0.00000  -0.00000  1
 Rh  Rh5  1  0.00432  0.24358  0.24790  1
 Rh  Rh6  1  -0.00432  0.75642  0.75210  1
 S  S1  1  0.30421  0.54831  0.30808  1
 S  S2  1  0.75977  0.00387  0.30808  1
 S  S3  1  0.69579  0.45169  0.69192  1
 S  S4  1  0.24023  0.99613  0.69192  1
