CIF file written using JARVIS-Tools package.
data_Nd3BWO9
_symmetry_space_group_name_H-M  'P6_3'
_cell_length_a       8.74621
_cell_length_b       8.74621
_cell_length_c       5.55101
_cell_angle_alpha    90
_cell_angle_beta     90
_cell_angle_gamma    120

_symmetry_Int_Tables_number  173
_chemical_formula_structural  Nd3BWO9
_chemical_formula_sum  Nd6B2W2O8
_cell_volume  367.7414761291619
_cell_formula_units_Z  2
loop_
  _symmetry_equiv_pos_site_id
 _symmetry_equiv_pos_as_xyz
 1  'x, y, z'
loop_
 _atom_site_type_symbol
 _atom_site_label
 _atom_site_symmetry_multiplicity
 _atom_site_fract_x
 _atom_site_fract_y
 _atom_site_fract_z
 _atom_site_fract_occupancy
 B  B1  1  0.00000  0.00000  0.36341  1
 B  B2  1  0.00000  0.00000  0.86341  1
 Nd  Nd1  1  0.72564  0.64097  0.20596  1
 Nd  Nd2  1  0.08467  0.72564  0.70596  1
 Nd  Nd3  1  0.35903  0.08467  0.20596  1
 Nd  Nd4  1  0.91533  0.27436  0.20596  1
 Nd  Nd5  1  0.64097  0.91533  0.70596  1
 Nd  Nd6  1  0.27436  0.35903  0.70596  1
 O  O1  1  0.27092  0.80047  0.04394  1
 O  O2  1  0.62088  0.13767  0.97566  1
 O  O3  1  0.13767  0.51679  0.47566  1
 O  O4  1  0.17592  0.04667  0.85526  1
 O  O5  1  0.12925  0.17592  0.35526  1
 O  O6  1  0.80047  0.52955  0.54394  1
 O  O7  1  0.72908  0.19953  0.54394  1
 O  O8  1  0.47045  0.27092  0.54394  1
 O  O9  1  0.19953  0.47045  0.04394  1
 O  O10  1  0.51679  0.37912  0.97566  1
 O  O11  1  0.87075  0.82408  0.85526  1
 O  O12  1  0.52955  0.72908  0.04394  1
 O  O13  1  0.95333  0.12925  0.85526  1
 O  O14  1  0.37912  0.86233  0.47566  1
 O  O15  1  0.04667  0.87075  0.35526  1
 O  O16  1  0.48321  0.62088  0.47566  1
 O  O17  1  0.86233  0.48321  0.97566  1
 O  O18  1  0.82408  0.95333  0.35526  1
 W  W1  1  0.66667  0.33333  0.74841  1
 W  W2  1  0.33333  0.66667  0.24841  1
