CIF file written using JARVIS-Tools package.
data_BaNi4O8
_symmetry_space_group_name_H-M  'R-3m'
_cell_length_a       7.09732
_cell_length_b       7.09732
_cell_length_c       7.09731
_cell_angle_alpha    47.5647
_cell_angle_beta     47.5647
_cell_angle_gamma    47.5647

_symmetry_Int_Tables_number  166
_chemical_formula_structural  BaNi4O8
_chemical_formula_sum  BaNi4O8
_cell_volume  178.22970214085638
_cell_formula_units_Z  1
loop_
  _symmetry_equiv_pos_site_id
 _symmetry_equiv_pos_as_xyz
 1  'x, y, z'
loop_
 _atom_site_type_symbol
 _atom_site_label
 _atom_site_symmetry_multiplicity
 _atom_site_fract_x
 _atom_site_fract_y
 _atom_site_fract_z
 _atom_site_fract_occupancy
 Ba  Ba1  1  0.50000  0.50000  0.50000  1
 Ni  Ni1  1  0.00000  0.00000  0.00000  1
 Ni  Ni2  1  0.50000  -0.00000  0.50000  1
 Ni  Ni3  1  0.50000  0.50000  0.00000  1
 Ni  Ni4  1  0.00000  0.50000  0.50000  1
 O  O1  1  0.77980  0.28492  0.77980  1
 O  O2  1  0.22020  0.22020  0.71508  1
 O  O3  1  0.22020  0.71508  0.22020  1
 O  O4  1  0.71508  0.22020  0.22020  1
 O  O5  1  0.28143  0.28143  0.28143  1
 O  O6  1  0.71857  0.71857  0.71857  1
 O  O7  1  0.77980  0.77980  0.28492  1
 O  O8  1  0.28492  0.77980  0.77980  1
