CIF file written using JARVIS-Tools package.
data_CoSn2
_symmetry_space_group_name_H-M  'I4/mcm'
_cell_length_a       5.28774
_cell_length_b       5.28774
_cell_length_c       5.28774
_cell_angle_alpha    105.811
_cell_angle_beta     105.811
_cell_angle_gamma    117.07

_symmetry_Int_Tables_number  140
_chemical_formula_structural  CoSn2
_chemical_formula_sum  Co2Sn4
_cell_volume  112.29177268164719
_cell_formula_units_Z  2
loop_
  _symmetry_equiv_pos_site_id
 _symmetry_equiv_pos_as_xyz
 1  'x, y, z'
loop_
 _atom_site_type_symbol
 _atom_site_label
 _atom_site_symmetry_multiplicity
 _atom_site_fract_x
 _atom_site_fract_y
 _atom_site_fract_z
 _atom_site_fract_occupancy
 Co  Co1  1  0.75000  0.75000  0.00000  1
 Co  Co2  1  0.25000  0.25000  0.00000  1
 Sn  Sn1  1  0.33370  0.16630  0.50000  1
 Sn  Sn2  1  0.83370  0.33370  0.16741  1
 Sn  Sn3  1  0.66630  0.83370  0.50000  1
 Sn  Sn4  1  0.16630  0.66630  0.83259  1
