CIF file written using JARVIS-Tools package.
data_ErMoO4F
_symmetry_space_group_name_H-M  'P2_1/c'
_cell_length_a       5.1835
_cell_length_b       12.2243
_cell_length_c       6.62737
_cell_angle_alpha    90
_cell_angle_beta     113.236
_cell_angle_gamma    90

_symmetry_Int_Tables_number  14
_chemical_formula_structural  ErMoO4F
_chemical_formula_sum  Er4Mo4O6F4
_cell_volume  385.87996807286225
_cell_formula_units_Z  4
loop_
  _symmetry_equiv_pos_site_id
 _symmetry_equiv_pos_as_xyz
 1  'x, y, z'
loop_
 _atom_site_type_symbol
 _atom_site_label
 _atom_site_symmetry_multiplicity
 _atom_site_fract_x
 _atom_site_fract_y
 _atom_site_fract_z
 _atom_site_fract_occupancy
 Er  Er1  1  0.36089  0.05050  0.19967  1
 Er  Er2  1  0.36089  0.44950  0.69967  1
 Er  Er3  1  0.63911  0.94950  0.80033  1
 Er  Er4  1  0.63911  0.55050  0.30033  1
 F  F1  1  0.54511  0.40056  0.46357  1
 F  F2  1  0.54511  0.09944  0.96357  1
 F  F3  1  0.45489  0.90056  0.03643  1
 F  F4  1  0.45489  0.59944  0.53643  1
 Mo  Mo1  1  0.07681  0.14423  0.62870  1
 Mo  Mo2  1  0.07681  0.35577  0.12870  1
 Mo  Mo3  1  0.92319  0.64423  0.87130  1
 Mo  Mo4  1  0.92319  0.85577  0.37130  1
 O  O1  1  0.24155  0.65435  0.09609  1
 O  O2  1  0.69106  0.56521  0.96273  1
 O  O3  1  0.69106  0.93479  0.46273  1
 O  O4  1  0.24155  0.84565  0.59609  1
 O  O5  1  0.81025  0.72091  0.29474  1
 O  O6  1  0.30894  0.43479  0.03727  1
 O  O7  1  0.18975  0.22091  0.20526  1
 O  O8  1  0.30894  0.06521  0.53727  1
 O  O9  1  0.81025  0.77909  0.79474  1
 O  O10  1  0.99773  0.93085  0.16283  1
 O  O11  1  0.00227  0.43085  0.33717  1
 O  O12  1  0.75845  0.15435  0.40391  1
 O  O13  1  0.00227  0.06915  0.83717  1
 O  O14  1  0.18975  0.27909  0.70526  1
 O  O15  1  0.75845  0.34565  0.90391  1
 O  O16  1  0.99773  0.56915  0.66283  1
