CIF file written using JARVIS-Tools package.
data_Cu3NiH6Cl2O6
_symmetry_space_group_name_H-M  'R-3m'
_cell_length_a       6.04571
_cell_length_b       6.04571
_cell_length_c       6.04571
_cell_angle_alpha    71.0281
_cell_angle_beta     71.0281
_cell_angle_gamma    71.0281

_symmetry_Int_Tables_number  166
_chemical_formula_structural  Cu3NiH6Cl2O6
_chemical_formula_sum  Cu3NiH6Cl2O6
_cell_volume  191.57930187560532
_cell_formula_units_Z  1
loop_
  _symmetry_equiv_pos_site_id
 _symmetry_equiv_pos_as_xyz
 1  'x, y, z'
loop_
 _atom_site_type_symbol
 _atom_site_label
 _atom_site_symmetry_multiplicity
 _atom_site_fract_x
 _atom_site_fract_y
 _atom_site_fract_z
 _atom_site_fract_occupancy
 Cl  Cl1  1  0.17873  0.17873  0.17873  1
 Cl  Cl2  1  0.82127  0.82127  0.82127  1
 Cu  Cu1  1  0.50000  0.50000  0.00000  1
 Cu  Cu2  1  0.50000  -0.00000  0.50000  1
 Cu  Cu3  1  0.00000  0.50000  0.50000  1
 H  H1  1  0.22874  0.22874  0.82003  1
 H  H2  1  0.77126  0.77126  0.17997  1
 H  H3  1  0.17997  0.77126  0.77126  1
 H  H4  1  0.82003  0.22874  0.22874  1
 H  H5  1  0.22874  0.82003  0.22874  1
 H  H6  1  0.77126  0.17997  0.77126  1
 Ni  Ni1  1  0.50000  0.50000  0.50000  1
 O  O1  1  0.72758  0.36046  0.72758  1
 O  O2  1  0.72758  0.72758  0.36046  1
 O  O3  1  0.27242  0.27242  0.63954  1
 O  O4  1  0.27242  0.63954  0.27242  1
 O  O5  1  0.36046  0.72758  0.72758  1
 O  O6  1  0.63954  0.27242  0.27242  1
