CIF file written using JARVIS-Tools package.
data_HfGaAu
_symmetry_space_group_name_H-M  'P-6m2'
_cell_length_a       4.34823
_cell_length_b       4.34823
_cell_length_c       6.70848
_cell_angle_alpha    90
_cell_angle_beta     90
_cell_angle_gamma    120

_symmetry_Int_Tables_number  187
_chemical_formula_structural  HfGaAu
_chemical_formula_sum  Hf2Ga2Au2
_cell_volume  109.84483947421643
_cell_formula_units_Z  2
loop_
  _symmetry_equiv_pos_site_id
 _symmetry_equiv_pos_as_xyz
 1  'x, y, z'
loop_
 _atom_site_type_symbol
 _atom_site_label
 _atom_site_symmetry_multiplicity
 _atom_site_fract_x
 _atom_site_fract_y
 _atom_site_fract_z
 _atom_site_fract_occupancy
 Au  Au1  1  0.33333  0.66667  0.71273  1
 Au  Au2  1  0.33333  0.66667  0.28727  1
 Ga  Ga1  1  0.66667  0.33333  0.20837  1
 Ga  Ga2  1  0.66667  0.33333  0.79163  1
 Hf  Hf1  1  0.00000  0.00000  0.50000  1
 Hf  Hf2  1  0.00000  0.00000  0.00000  1
