CIF file written using JARVIS-Tools package.
data_I2O5
_symmetry_space_group_name_H-M  'P2_1/c'
_cell_length_a       5.07809
_cell_length_b       8.08789
_cell_length_c       11.0399
_cell_angle_alpha    107.552
_cell_angle_beta     90
_cell_angle_gamma    90

_symmetry_Int_Tables_number  14
_chemical_formula_structural  I2O5
_chemical_formula_sum  I8O20
_cell_volume  432.31211092372877
_cell_formula_units_Z  4
loop_
  _symmetry_equiv_pos_site_id
 _symmetry_equiv_pos_as_xyz
 1  'x, y, z'
loop_
 _atom_site_type_symbol
 _atom_site_label
 _atom_site_symmetry_multiplicity
 _atom_site_fract_x
 _atom_site_fract_y
 _atom_site_fract_z
 _atom_site_fract_occupancy
 I  I1  1  0.12117  0.21366  0.12580  1
 I  I2  1  0.87883  0.78634  0.87420  1
 I  I3  1  0.37883  0.71366  0.12580  1
 I  I4  1  0.66787  0.15629  0.37405  1
 I  I5  1  0.16787  0.34371  0.62595  1
 I  I6  1  0.33213  0.84371  0.62595  1
 I  I7  1  0.83213  0.65629  0.37405  1
 I  I8  1  0.62117  0.28634  0.87420  1
 O  O1  1  0.49059  0.30213  0.30891  1
 O  O2  1  0.99059  0.19787  0.69109  1
 O  O3  1  0.50941  0.69787  0.69109  1
 O  O4  1  0.02536  0.87827  0.74671  1
 O  O5  1  0.97464  0.12173  0.25329  1
 O  O6  1  0.47464  0.37827  0.74671  1
 O  O7  1  0.83924  0.15069  0.01541  1
 O  O8  1  0.00941  0.80213  0.30891  1
 O  O9  1  0.33924  0.34931  0.98459  1
 O  O10  1  0.96652  0.55996  0.80661  1
 O  O11  1  0.66076  0.65069  0.01541  1
 O  O12  1  0.52536  0.62173  0.25329  1
 O  O13  1  0.03348  0.44004  0.19339  1
 O  O14  1  0.46652  0.94004  0.19339  1
 O  O15  1  0.83971  0.34154  0.49461  1
 O  O16  1  0.33971  0.15846  0.50539  1
 O  O17  1  0.16029  0.65846  0.50539  1
 O  O18  1  0.66029  0.84154  0.49461  1
 O  O19  1  0.16076  0.84931  0.98459  1
 O  O20  1  0.53348  0.05996  0.80661  1
