CIF file written using JARVIS-Tools package.
data_CrPO4
_symmetry_space_group_name_H-M  'Cmcm'
_cell_length_a       4.69121
_cell_length_b       4.69121
_cell_length_c       6.1625
_cell_angle_alpha    90
_cell_angle_beta     90
_cell_angle_gamma    112.648

_symmetry_Int_Tables_number  63
_chemical_formula_structural  CrPO4
_chemical_formula_sum  Cr2P2O8
_cell_volume  125.16237331454634
_cell_formula_units_Z  2
loop_
  _symmetry_equiv_pos_site_id
 _symmetry_equiv_pos_as_xyz
 1  'x, y, z'
loop_
 _atom_site_type_symbol
 _atom_site_label
 _atom_site_symmetry_multiplicity
 _atom_site_fract_x
 _atom_site_fract_y
 _atom_site_fract_z
 _atom_site_fract_occupancy
 Cr  Cr1  1  0.00000  0.00000  0.50000  1
 Cr  Cr2  1  0.00000  0.00000  0.00000  1
 O  O1  1  0.22475  0.28269  0.75000  1
 O  O2  1  0.77525  0.71731  0.25000  1
 O  O3  1  0.28269  0.22475  0.25000  1
 O  O4  1  0.71731  0.77525  0.75000  1
 O  O5  1  0.24635  0.75365  0.95790  1
 O  O6  1  0.75365  0.24635  0.45790  1
 O  O7  1  0.75365  0.24635  0.04210  1
 O  O8  1  0.24635  0.75365  0.54210  1
 P  P1  1  0.64996  0.35004  0.25000  1
 P  P2  1  0.35004  0.64996  0.75000  1
