CIF file written using JARVIS-Tools package.
data_Tb3Mn2C6
_symmetry_space_group_name_H-M  'P6_3/m'
_cell_length_a       8.09934
_cell_length_b       8.09934
_cell_length_c       4.99118
_cell_angle_alpha    90
_cell_angle_beta     90
_cell_angle_gamma    120

_symmetry_Int_Tables_number  176
_chemical_formula_structural  Tb3Mn2C6
_chemical_formula_sum  Tb6Mn4C2
_cell_volume  283.5515736614151
_cell_formula_units_Z  2
loop_
  _symmetry_equiv_pos_site_id
 _symmetry_equiv_pos_as_xyz
 1  'x, y, z'
loop_
 _atom_site_type_symbol
 _atom_site_label
 _atom_site_symmetry_multiplicity
 _atom_site_fract_x
 _atom_site_fract_y
 _atom_site_fract_z
 _atom_site_fract_occupancy
 C  C1  1  0.42128  0.28624  0.75000  1
 C  C2  1  0.13504  0.42128  0.25000  1
 C  C3  1  0.19167  0.96417  0.25000  1
 C  C4  1  0.77250  0.80833  0.25000  1
 C  C5  1  0.22750  0.19167  0.75000  1
 C  C6  1  0.96417  0.77250  0.75000  1
 C  C7  1  0.03583  0.22750  0.25000  1
 C  C8  1  0.86496  0.57872  0.75000  1
 C  C9  1  0.28624  0.86496  0.25000  1
 C  C10  1  0.57872  0.71376  0.25000  1
 C  C11  1  0.71376  0.13504  0.75000  1
 C  C12  1  0.80833  0.03583  0.75000  1
 Mn  Mn1  1  0.33333  0.66667  0.25000  1
 Mn  Mn2  1  0.66667  0.33333  0.75000  1
 Mn  Mn3  1  0.00000  0.00000  0.00000  1
 Mn  Mn4  1  0.00000  0.00000  0.50000  1
 Tb  Tb1  1  0.38043  0.31546  0.25000  1
 Tb  Tb2  1  0.06497  0.38043  0.75000  1
 Tb  Tb3  1  0.31546  0.93503  0.75000  1
 Tb  Tb4  1  0.68454  0.06497  0.25000  1
 Tb  Tb5  1  0.93503  0.61957  0.25000  1
 Tb  Tb6  1  0.61957  0.68454  0.75000  1
