CIF file written using JARVIS-Tools package.
data_U2Cu4As5
_symmetry_space_group_name_H-M  'I4/mmm'
_cell_length_a       4.00657
_cell_length_b       4.00658
_cell_length_c       12.5661
_cell_angle_alpha    99.1732
_cell_angle_beta     99.1732
_cell_angle_gamma    90

_symmetry_Int_Tables_number  139
_chemical_formula_structural  U2Cu4As5
_chemical_formula_sum  U2Cu4As5
_cell_volume  196.52540769859232
_cell_formula_units_Z  1
loop_
  _symmetry_equiv_pos_site_id
 _symmetry_equiv_pos_as_xyz
 1  'x, y, z'
loop_
 _atom_site_type_symbol
 _atom_site_label
 _atom_site_symmetry_multiplicity
 _atom_site_fract_x
 _atom_site_fract_y
 _atom_site_fract_z
 _atom_site_fract_occupancy
 As  As1  1  0.37562  0.37562  0.75125  1
 As  As2  1  0.62438  0.62438  0.24875  1
 As  As3  1  0.00000  0.00000  0.00000  1
 As  As4  1  0.75000  0.25000  0.50000  1
 As  As5  1  0.25000  0.75000  0.50000  1
 Cu  Cu1  1  0.94197  0.44197  0.88394  1
 Cu  Cu2  1  0.05803  0.55803  0.11606  1
 Cu  Cu3  1  0.55803  0.05803  0.11606  1
 Cu  Cu4  1  0.44197  0.94197  0.88394  1
 U  U1  1  0.84175  0.84175  0.68350  1
 U  U2  1  0.15825  0.15825  0.31650  1
