CIF file written using JARVIS-Tools package.
data_NaFeSe2O8
_symmetry_space_group_name_H-M  'C2/m'
_cell_length_a       4.97115
_cell_length_b       4.97116
_cell_length_c       7.04799
_cell_angle_alpha    88.2987
_cell_angle_beta     88.2986
_cell_angle_gamma    67.7064

_symmetry_Int_Tables_number  12
_chemical_formula_structural  NaFeSe2O8
_chemical_formula_sum  NaFeSe2O8
_cell_volume  161.05079129964096
_cell_formula_units_Z  1
loop_
  _symmetry_equiv_pos_site_id
 _symmetry_equiv_pos_as_xyz
 1  'x, y, z'
loop_
 _atom_site_type_symbol
 _atom_site_label
 _atom_site_symmetry_multiplicity
 _atom_site_fract_x
 _atom_site_fract_y
 _atom_site_fract_z
 _atom_site_fract_occupancy
 Fe  Fe1  1  0.00000  0.00000  0.00000  1
 Na  Na1  1  -0.00000  -0.00000  0.50000  1
 O  O1  1  0.76307  0.26751  0.21072  1
 O  O2  1  0.28440  0.28440  0.56228  1
 O  O3  1  0.23693  0.73249  0.78928  1
 O  O4  1  0.26751  0.76307  0.21072  1
 O  O5  1  0.76308  0.76308  0.03904  1
 O  O6  1  0.73249  0.23693  0.78928  1
 O  O7  1  0.23692  0.23692  0.96096  1
 O  O8  1  0.71560  0.71560  0.43772  1
 Se  Se1  1  0.36559  0.36559  0.76996  1
 Se  Se2  1  0.63441  0.63441  0.23004  1
