CIF file written using JARVIS-Tools package.
data_H8PtN2Cl2O2
_symmetry_space_group_name_H-M  'P2_1/c'
_cell_length_a       5.98943
_cell_length_b       6.76594
_cell_length_c       8.22243
_cell_angle_alpha    90
_cell_angle_beta     106.046
_cell_angle_gamma    90

_symmetry_Int_Tables_number  14
_chemical_formula_structural  H8PtN2Cl2O2
_chemical_formula_sum  H6Pt2N4Cl4O4
_cell_volume  320.22507215629156
_cell_formula_units_Z  2
loop_
  _symmetry_equiv_pos_site_id
 _symmetry_equiv_pos_as_xyz
 1  'x, y, z'
loop_
 _atom_site_type_symbol
 _atom_site_label
 _atom_site_symmetry_multiplicity
 _atom_site_fract_x
 _atom_site_fract_y
 _atom_site_fract_z
 _atom_site_fract_occupancy
 Cl  Cl1  1  0.34975  0.16554  0.12129  1
 Cl  Cl2  1  0.65025  0.66554  0.37871  1
 Cl  Cl3  1  0.65025  0.83446  0.87871  1
 Cl  Cl4  1  0.34975  0.33446  0.62129  1
 H  H1  1  0.64687  0.25843  0.44155  1
 H  H2  1  0.35313  0.75843  0.05845  1
 H  H3  1  0.35313  0.74157  0.55845  1
 H  H4  1  0.64687  0.24157  0.94155  1
 H  H5  1  0.85871  0.15347  0.36987  1
 H  H6  1  0.14129  0.65347  0.13013  1
 H  H7  1  0.85871  0.34653  0.86987  1
 H  H8  1  0.18772  0.11678  0.78135  1
 H  H9  1  0.87733  0.15245  0.58085  1
 H  H10  1  0.12267  0.65245  0.91915  1
 H  H11  1  0.81228  0.61678  0.71865  1
 H  H12  1  0.12267  0.84755  0.41915  1
 H  H13  1  0.81228  0.88322  0.21865  1
 H  H14  1  0.18772  0.38322  0.28135  1
 H  H15  1  0.87733  0.34755  0.08085  1
 H  H16  1  0.14129  0.84653  0.63013  1
 N  N1  1  0.82290  0.26601  0.96848  1
 N  N2  1  0.82290  0.23399  0.46848  1
 N  N3  1  0.17710  0.73399  0.03152  1
 N  N4  1  0.17710  0.76601  0.53152  1
 O  O1  1  0.94463  0.52606  0.73213  1
 O  O2  1  0.05537  0.47394  0.26787  1
 O  O3  1  0.94463  0.97394  0.23213  1
 O  O4  1  0.05537  0.02606  0.76787  1
 Pt  Pt1  1  -0.00000  0.50000  0.50000  1
 Pt  Pt2  1  0.00000  0.00000  0.00000  1
