CIF file written using JARVIS-Tools package.
data_Rb3NaBe2F8
_symmetry_space_group_name_H-M  'P-3m1'
_cell_length_a       5.75527
_cell_length_b       5.75527
_cell_length_c       7.47928
_cell_angle_alpha    90
_cell_angle_beta     90
_cell_angle_gamma    120

_symmetry_Int_Tables_number  164
_chemical_formula_structural  Rb3NaBe2F8
_chemical_formula_sum  Rb3NaBe2F8
_cell_volume  214.54683845772644
_cell_formula_units_Z  1
loop_
  _symmetry_equiv_pos_site_id
 _symmetry_equiv_pos_as_xyz
 1  'x, y, z'
loop_
 _atom_site_type_symbol
 _atom_site_label
 _atom_site_symmetry_multiplicity
 _atom_site_fract_x
 _atom_site_fract_y
 _atom_site_fract_z
 _atom_site_fract_occupancy
 Be  Be1  1  0.33333  0.66667  0.26173  1
 Be  Be2  1  0.66667  0.33333  0.73827  1
 F  F1  1  0.37000  0.18500  0.81650  1
 F  F2  1  0.63000  0.81500  0.18350  1
 F  F3  1  0.81500  0.63000  0.81650  1
 F  F4  1  0.81500  0.18500  0.81650  1
 F  F5  1  0.33333  0.66667  0.46672  1
 F  F6  1  0.66667  0.33333  0.53328  1
 F  F7  1  0.18500  0.37000  0.18350  1
 F  F8  1  0.18500  0.81500  0.18350  1
 Na  Na1  1  0.00000  0.00000  0.00000  1
 Rb  Rb1  1  0.33333  0.66667  0.82600  1
 Rb  Rb2  1  0.00000  0.00000  0.50000  1
 Rb  Rb3  1  0.66667  0.33333  0.17400  1
