CIF file written using JARVIS-Tools package.
data_Li2AlBO4
_symmetry_space_group_name_H-M  'P2_1/c'
_cell_length_a       6.29017
_cell_length_b       5.07788
_cell_length_c       10.3126
_cell_angle_alpha    90
_cell_angle_beta     95.349
_cell_angle_gamma    90

_symmetry_Int_Tables_number  14
_chemical_formula_structural  Li2AlBO4
_chemical_formula_sum  Li8Al4B4O6
_cell_volume  327.9571029355359
_cell_formula_units_Z  4
loop_
  _symmetry_equiv_pos_site_id
 _symmetry_equiv_pos_as_xyz
 1  'x, y, z'
loop_
 _atom_site_type_symbol
 _atom_site_label
 _atom_site_symmetry_multiplicity
 _atom_site_fract_x
 _atom_site_fract_y
 _atom_site_fract_z
 _atom_site_fract_occupancy
 Al  Al1  1  0.49816  0.15145  0.15741  1
 Al  Al2  1  0.49816  0.34855  0.65741  1
 Al  Al3  1  0.50184  0.65145  0.34259  1
 Al  Al4  1  0.50184  0.84855  0.84259  1
 B  B1  1  0.20009  0.17859  0.94050  1
 B  B2  1  0.20009  0.32141  0.44050  1
 B  B3  1  0.79991  0.67859  0.55950  1
 B  B4  1  0.79991  0.82141  0.05950  1
 Li  Li1  1  0.77396  0.32717  0.92691  1
 Li  Li2  1  0.89621  0.13888  0.71060  1
 Li  Li3  1  0.10379  0.63888  0.78940  1
 Li  Li4  1  0.10379  0.86112  0.28940  1
 Li  Li5  1  0.89621  0.36112  0.21060  1
 Li  Li6  1  0.77396  0.17283  0.42691  1
 Li  Li7  1  0.22604  0.82717  0.57309  1
 Li  Li8  1  0.22604  0.67283  0.07309  1
 O  O1  1  0.73764  0.41297  0.57819  1
 O  O2  1  0.69872  0.69131  0.95138  1
 O  O3  1  0.26236  0.58703  0.42181  1
 O  O4  1  0.73764  0.08703  0.07819  1
 O  O5  1  0.30128  0.19131  0.54862  1
 O  O6  1  0.94914  0.70154  0.14158  1
 O  O7  1  0.05086  0.20154  0.35842  1
 O  O8  1  0.39808  0.64285  0.71560  1
 O  O9  1  0.69872  0.80869  0.45138  1
 O  O10  1  0.39808  0.85715  0.21560  1
 O  O11  1  0.05086  0.29846  0.85842  1
 O  O12  1  0.60192  0.35715  0.28440  1
 O  O13  1  0.94914  0.79846  0.64158  1
 O  O14  1  0.30128  0.30869  0.04862  1
 O  O15  1  0.26236  0.91297  0.92181  1
 O  O16  1  0.60192  0.14285  0.78440  1
