CIF file written using JARVIS-Tools package.
data_NaS
_symmetry_space_group_name_H-M  'P-62m'
_cell_length_a       7.58605
_cell_length_b       7.58605
_cell_length_c       5.38086
_cell_angle_alpha    90
_cell_angle_beta     90
_cell_angle_gamma    120

_symmetry_Int_Tables_number  189
_chemical_formula_structural  NaS
_chemical_formula_sum  Na6S6
_cell_volume  268.1717511294294
_cell_formula_units_Z  6
loop_
  _symmetry_equiv_pos_site_id
 _symmetry_equiv_pos_as_xyz
 1  'x, y, z'
loop_
 _atom_site_type_symbol
 _atom_site_label
 _atom_site_symmetry_multiplicity
 _atom_site_fract_x
 _atom_site_fract_y
 _atom_site_fract_z
 _atom_site_fract_occupancy
 Na  Na1  1  0.30973  0.00000  0.00000  1
 Na  Na2  1  0.69027  0.69027  0.00000  1
 Na  Na3  1  0.00000  0.30973  0.00000  1
 Na  Na4  1  0.64319  0.00000  0.50000  1
 Na  Na5  1  0.35681  0.35681  0.50000  1
 Na  Na6  1  0.00000  0.64319  0.50000  1
 S  S1  1  0.00000  0.00000  0.30052  1
 S  S2  1  0.00000  0.00000  0.69948  1
 S  S3  1  0.33333  0.66667  0.20138  1
 S  S4  1  0.33333  0.66667  0.79862  1
 S  S5  1  0.66667  0.33333  0.79862  1
 S  S6  1  0.66667  0.33333  0.20138  1
