CIF file written using JARVIS-Tools package.
data_K2NaFeO3
_symmetry_space_group_name_H-M  'Cmme'
_cell_length_a       6.30367
_cell_length_b       6.31005
_cell_length_c       6.69096
_cell_angle_alpha    90
_cell_angle_beta     90
_cell_angle_gamma    119.967

_symmetry_Int_Tables_number  67
_chemical_formula_structural  K2NaFeO3
_chemical_formula_sum  K4Na2Fe2O6
_cell_volume  230.56399444866642
_cell_formula_units_Z  2
loop_
  _symmetry_equiv_pos_site_id
 _symmetry_equiv_pos_as_xyz
 1  'x, y, z'
loop_
 _atom_site_type_symbol
 _atom_site_label
 _atom_site_symmetry_multiplicity
 _atom_site_fract_x
 _atom_site_fract_y
 _atom_site_fract_z
 _atom_site_fract_occupancy
 Fe  Fe1  1  0.25000  0.00000  0.16825  1
 Fe  Fe2  1  0.75000  0.00000  0.83175  1
 K  K1  1  0.25000  0.00000  0.66157  1
 K  K2  1  0.75000  0.00000  0.33843  1
 K  K3  1  0.75000  0.50000  0.00000  1
 K  K4  1  0.25000  0.50000  0.00000  1
 Na  Na1  1  0.25000  0.50000  0.50000  1
 Na  Na2  1  0.75000  0.50000  0.50000  1
 O  O1  1  0.89493  0.28986  0.68505  1
 O  O2  1  0.50000  0.00000  0.00000  1
 O  O3  1  0.60507  0.71014  0.68505  1
 O  O4  1  0.10507  0.71014  0.31495  1
 O  O5  1  0.00000  0.00000  0.00000  1
 O  O6  1  0.39493  0.28986  0.31495  1
