CIF file written using JARVIS-Tools package.
data_MgTeH12O9
_symmetry_space_group_name_H-M  'R3'
_cell_length_a       5.9637
_cell_length_b       5.96369
_cell_length_c       5.9637
_cell_angle_alpha    98.2813
_cell_angle_beta     98.2813
_cell_angle_gamma    98.2812

_symmetry_Int_Tables_number  146
_chemical_formula_structural  MgTeH12O9
_chemical_formula_sum  MgTeH2O9
_cell_volume  204.74125974718575
_cell_formula_units_Z  1
loop_
  _symmetry_equiv_pos_site_id
 _symmetry_equiv_pos_as_xyz
 1  'x, y, z'
loop_
 _atom_site_type_symbol
 _atom_site_label
 _atom_site_symmetry_multiplicity
 _atom_site_fract_x
 _atom_site_fract_y
 _atom_site_fract_z
 _atom_site_fract_occupancy
 H  H1  1  0.81458  0.38435  0.17599  1
 H  H2  1  0.53889  0.95749  0.03188  1
 H  H3  1  0.03188  0.53889  0.95749  1
 H  H4  1  0.95749  0.03188  0.53889  1
 H  H5  1  0.63223  0.73737  0.12739  1
 H  H6  1  0.12739  0.63223  0.73737  1
 H  H7  1  0.17599  0.81458  0.38435  1
 H  H8  1  0.42281  0.28315  0.08018  1
 H  H9  1  0.08018  0.42281  0.28315  1
 H  H10  1  0.28315  0.08018  0.42281  1
 H  H11  1  0.38435  0.17599  0.81458  1
 H  H12  1  0.73737  0.12739  0.63223  1
 Mg  Mg1  1  0.00292  0.00292  0.00292  1
 O  O1  1  0.14182  0.96521  0.34010  1
 O  O2  1  0.96521  0.34010  0.14182  1
 O  O3  1  0.34010  0.14182  0.96521  1
 O  O4  1  0.87468  0.05063  0.67225  1
 O  O5  1  0.05063  0.67225  0.87468  1
 O  O6  1  0.67225  0.87468  0.05063  1
 O  O7  1  0.50158  0.23930  0.58979  1
 O  O8  1  0.23930  0.58979  0.50158  1
 O  O9  1  0.58979  0.50158  0.23930  1
 Te  Te1  1  0.55350  0.55350  0.55350  1
