CIF file written using JARVIS-Tools package.
data_KAs4IO6
_symmetry_space_group_name_H-M  'P6/mmm'
_cell_length_a       5.35853
_cell_length_b       5.35853
_cell_length_c       9.08132
_cell_angle_alpha    90
_cell_angle_beta     90
_cell_angle_gamma    120

_symmetry_Int_Tables_number  191
_chemical_formula_structural  KAs4IO6
_chemical_formula_sum  KAs4IO6
_cell_volume  225.82391397944366
_cell_formula_units_Z  1
loop_
  _symmetry_equiv_pos_site_id
 _symmetry_equiv_pos_as_xyz
 1  'x, y, z'
loop_
 _atom_site_type_symbol
 _atom_site_label
 _atom_site_symmetry_multiplicity
 _atom_site_fract_x
 _atom_site_fract_y
 _atom_site_fract_z
 _atom_site_fract_occupancy
 As  As1  1  0.33333  0.66667  0.78449  1
 As  As2  1  0.66667  0.33333  0.78449  1
 As  As3  1  0.66667  0.33333  0.21551  1
 As  As4  1  0.33333  0.66667  0.21551  1
 I  I1  1  0.00000  0.00000  0.00000  1
 K  K1  1  0.00000  0.00000  0.50000  1
 O  O1  1  0.50000  0.50000  0.32503  1
 O  O2  1  -0.00000  0.50000  0.67497  1
 O  O3  1  0.50000  0.50000  0.67497  1
 O  O4  1  0.50000  -0.00000  0.67497  1
 O  O5  1  -0.00000  0.50000  0.32503  1
 O  O6  1  0.50000  -0.00000  0.32503  1
