CIF file written using JARVIS-Tools package.
data_Ca2SbMoO6
_symmetry_space_group_name_H-M  'P2_1/m'
_cell_length_a       5.55984
_cell_length_b       8.03647
_cell_length_c       5.81969
_cell_angle_alpha    90
_cell_angle_beta     89.3738
_cell_angle_gamma    90

_symmetry_Int_Tables_number  11
_chemical_formula_structural  Ca2SbMoO6
_chemical_formula_sum  Ca4Sb2Mo2O2
_cell_volume  260.0169013021308
_cell_formula_units_Z  2
loop_
  _symmetry_equiv_pos_site_id
 _symmetry_equiv_pos_as_xyz
 1  'x, y, z'
loop_
 _atom_site_type_symbol
 _atom_site_label
 _atom_site_symmetry_multiplicity
 _atom_site_fract_x
 _atom_site_fract_y
 _atom_site_fract_z
 _atom_site_fract_occupancy
 Ca  Ca1  1  0.48201  0.25000  0.56539  1
 Ca  Ca2  1  0.51799  0.75000  0.43461  1
 Ca  Ca3  1  0.01140  0.25000  0.05785  1
 Ca  Ca4  1  0.98860  0.75000  0.94215  1
 Mo  Mo1  1  0.50000  0.50000  0.00000  1
 Mo  Mo2  1  0.50000  0.00000  0.00000  1
 O  O1  1  0.67003  0.56108  0.71123  1
 O  O2  1  0.88353  0.25000  0.45416  1
 O  O3  1  0.32997  0.06108  0.28877  1
 O  O4  1  0.20647  0.44025  0.82019  1
 O  O5  1  0.79353  0.94025  0.17981  1
 O  O6  1  0.20647  0.05975  0.82019  1
 O  O7  1  0.59989  0.25000  0.96259  1
 O  O8  1  0.67003  0.93892  0.71123  1
 O  O9  1  0.79353  0.55975  0.17981  1
 O  O10  1  0.32997  0.43892  0.28877  1
 O  O11  1  0.11647  0.75000  0.54584  1
 O  O12  1  0.40011  0.75000  0.03741  1
 Sb  Sb1  1  -0.00000  0.00000  0.50000  1
 Sb  Sb2  1  -0.00000  0.50000  0.50000  1
