CIF file written using JARVIS-Tools package.
data_Na3VSO3
_symmetry_space_group_name_H-M  'R3c'
_cell_length_a       6.39799
_cell_length_b       6.39799
_cell_length_c       6.39799
_cell_angle_alpha    83.8883
_cell_angle_beta     83.8883
_cell_angle_gamma    83.8883

_symmetry_Int_Tables_number  161
_chemical_formula_structural  Na3VSO3
_chemical_formula_sum  Na6V2S2O6
_cell_volume  257.7279187642679
_cell_formula_units_Z  2
loop_
  _symmetry_equiv_pos_site_id
 _symmetry_equiv_pos_as_xyz
 1  'x, y, z'
loop_
 _atom_site_type_symbol
 _atom_site_label
 _atom_site_symmetry_multiplicity
 _atom_site_fract_x
 _atom_site_fract_y
 _atom_site_fract_z
 _atom_site_fract_occupancy
 Na  Na1  1  0.70761  0.09045  0.40096  1
 Na  Na2  1  0.59045  0.20761  0.90096  1
 Na  Na3  1  0.20761  0.90096  0.59045  1
 Na  Na4  1  0.40096  0.70761  0.09045  1
 Na  Na5  1  0.09045  0.40096  0.70761  1
 Na  Na6  1  0.90096  0.59045  0.20761  1
 O  O1  1  0.53452  0.91565  0.72570  1
 O  O2  1  0.72570  0.53452  0.91565  1
 O  O3  1  0.91565  0.72570  0.53452  1
 O  O4  1  0.22570  0.41565  0.03452  1
 O  O5  1  0.41565  0.03452  0.22570  1
 O  O6  1  0.03452  0.22570  0.41565  1
 S  S1  1  0.49823  0.49823  0.49823  1
 S  S2  1  -0.00177  -0.00177  -0.00177  1
 V  V1  1  0.68106  0.68106  0.68106  1
 V  V2  1  0.18106  0.18106  0.18106  1
