CIF file written using JARVIS-Tools package.
data_Li2Ti3NbO8
_symmetry_space_group_name_H-M  'P6_3mc'
_cell_length_a       5.94576
_cell_length_b       5.94578
_cell_length_c       9.76982
_cell_angle_alpha    89.9996
_cell_angle_beta     90.0002
_cell_angle_gamma    120

_symmetry_Int_Tables_number  186
_chemical_formula_structural  Li2Ti3NbO8
_chemical_formula_sum  Li4Ti6Nb2O6
_cell_volume  299.11140150359336
_cell_formula_units_Z  2
loop_
  _symmetry_equiv_pos_site_id
 _symmetry_equiv_pos_as_xyz
 1  'x, y, z'
loop_
 _atom_site_type_symbol
 _atom_site_label
 _atom_site_symmetry_multiplicity
 _atom_site_fract_x
 _atom_site_fract_y
 _atom_site_fract_z
 _atom_site_fract_occupancy
 Li  Li1  1  0.33335  0.66669  0.90298  1
 Li  Li2  1  0.00003  0.00002  0.99404  1
 Li  Li3  1  -0.00003  0.99999  0.49404  1
 Li  Li4  1  0.66665  0.33334  0.40298  1
 Nb  Nb1  1  0.33333  0.66667  0.48637  1
 Nb  Nb2  1  0.66667  0.33335  0.98637  1
 O  O1  1  0.16293  0.83709  0.59631  1
 O  O2  1  0.96922  0.48462  0.83790  1
 O  O3  1  0.33333  0.66668  0.10594  1
 O  O4  1  -0.00000  0.00001  0.31250  1
 O  O5  1  0.00000  0.00001  0.81250  1
 O  O6  1  0.16292  0.32586  0.59630  1
 O  O7  1  0.03078  0.51540  0.33789  1
 O  O8  1  0.48460  0.51541  0.33790  1
 O  O9  1  0.67414  0.83708  0.59631  1
 O  O10  1  0.51540  0.48461  0.83790  1
 O  O11  1  0.83707  0.67416  0.09631  1
 O  O12  1  0.66667  0.33335  0.60594  1
 O  O13  1  0.48460  0.96921  0.33790  1
 O  O14  1  0.32586  0.16294  0.09631  1
 O  O15  1  0.51540  0.03081  0.83790  1
 O  O16  1  0.83708  0.16293  0.09630  1
 Ti  Ti1  1  0.83043  0.16959  0.71649  1
 Ti  Ti2  1  0.66085  0.83044  0.21648  1
 Ti  Ti3  1  0.33915  0.16959  0.71648  1
 Ti  Ti4  1  0.83043  0.66086  0.71649  1
 Ti  Ti5  1  0.16957  0.83043  0.21649  1
 Ti  Ti6  1  0.16957  0.33916  0.21649  1
