CIF file written using JARVIS-Tools package.
data_CaSO4
_symmetry_space_group_name_H-M  'Cmcm'
_cell_length_a       4.68898
_cell_length_b       4.68898
_cell_length_c       7.00763
_cell_angle_alpha    90
_cell_angle_beta     90
_cell_angle_gamma    96.5469

_symmetry_Int_Tables_number  63
_chemical_formula_structural  CaSO4
_chemical_formula_sum  Ca2S2O8
_cell_volume  153.06842071701757
_cell_formula_units_Z  2
loop_
  _symmetry_equiv_pos_site_id
 _symmetry_equiv_pos_as_xyz
 1  'x, y, z'
loop_
 _atom_site_type_symbol
 _atom_site_label
 _atom_site_symmetry_multiplicity
 _atom_site_fract_x
 _atom_site_fract_y
 _atom_site_fract_z
 _atom_site_fract_occupancy
 Ca  Ca1  1  0.35157  0.35157  0.75000  1
 Ca  Ca2  1  0.64843  0.64843  0.25000  1
 O  O1  1  0.15970  0.81830  0.75000  1
 O  O2  1  0.84030  0.18170  0.25000  1
 O  O3  1  0.81830  0.15970  0.75000  1
 O  O4  1  0.18170  0.84030  0.25000  1
 O  O5  1  0.29459  0.29459  0.08084  1
 O  O6  1  0.70541  0.70541  0.58084  1
 O  O7  1  0.29459  0.29459  0.41916  1
 O  O8  1  0.70541  0.70541  0.91916  1
 S  S1  1  0.84820  0.84820  0.75000  1
 S  S2  1  0.15180  0.15180  0.25000  1
