CIF file written using JARVIS-Tools package.
data_BaSb12Ru4
_symmetry_space_group_name_H-M  'Im-3'
_cell_length_a       8.18973
_cell_length_b       8.18972
_cell_length_c       8.18973
_cell_angle_alpha    109.471
_cell_angle_beta     109.471
_cell_angle_gamma    109.471

_symmetry_Int_Tables_number  204
_chemical_formula_structural  BaSb12Ru4
_chemical_formula_sum  BaSb2Ru4
_cell_volume  422.84999007037777
_cell_formula_units_Z  1
loop_
  _symmetry_equiv_pos_site_id
 _symmetry_equiv_pos_as_xyz
 1  'x, y, z'
loop_
 _atom_site_type_symbol
 _atom_site_label
 _atom_site_symmetry_multiplicity
 _atom_site_fract_x
 _atom_site_fract_y
 _atom_site_fract_z
 _atom_site_fract_occupancy
 Ba  Ba1  1  0.00000  0.00000  0.00000  1
 Ru  Ru1  1  -0.00000  0.50000  -0.00000  1
 Ru  Ru2  1  0.00000  0.00000  0.50000  1
 Ru  Ru3  1  0.50000  0.00000  -0.00000  1
 Ru  Ru4  1  0.50000  0.50000  0.50000  1
 Sb  Sb1  1  0.84035  0.18339  0.34304  1
 Sb  Sb2  1  0.49731  0.65696  0.84035  1
 Sb  Sb3  1  0.34304  0.84035  0.18339  1
 Sb  Sb4  1  0.50269  0.34304  0.15965  1
 Sb  Sb5  1  0.84035  0.49731  0.65696  1
 Sb  Sb6  1  0.34304  0.15965  0.50269  1
 Sb  Sb7  1  0.65696  0.15965  0.81661  1
 Sb  Sb8  1  0.18339  0.34304  0.84035  1
 Sb  Sb9  1  0.15965  0.50269  0.34304  1
 Sb  Sb10  1  0.65696  0.84035  0.49731  1
 Sb  Sb11  1  0.81661  0.65696  0.15965  1
 Sb  Sb12  1  0.15965  0.81661  0.65696  1
