CIF file written using JARVIS-Tools package.
data_Ba2SrWO6
_symmetry_space_group_name_H-M  'C2/m'
_cell_length_a       6.07252
_cell_length_b       6.07325
_cell_length_c       6.14511
_cell_angle_alpha    60.8177
_cell_angle_beta     60.39
_cell_angle_gamma    60.004

_symmetry_Int_Tables_number  12
_chemical_formula_structural  Ba2SrWO6
_chemical_formula_sum  Ba2SrWO6
_cell_volume  161.69957886611556
_cell_formula_units_Z  1
loop_
  _symmetry_equiv_pos_site_id
 _symmetry_equiv_pos_as_xyz
 1  'x, y, z'
loop_
 _atom_site_type_symbol
 _atom_site_label
 _atom_site_symmetry_multiplicity
 _atom_site_fract_x
 _atom_site_fract_y
 _atom_site_fract_z
 _atom_site_fract_occupancy
 Ba  Ba1  1  0.24779  0.74579  0.75863  1
 Ba  Ba2  1  0.75221  0.25421  0.24137  1
 O  O1  1  0.23417  0.25786  0.82180  1
 O  O2  1  0.31382  0.74214  0.17820  1
 O  O3  1  0.76583  0.74214  0.17820  1
 O  O4  1  0.68618  0.25786  0.82180  1
 O  O5  1  0.71949  0.85221  0.70880  1
 O  O6  1  0.28051  0.14779  0.29120  1
 Sr  Sr1  1  -0.00000  0.50000  0.50000  1
 W  W1  1  0.50000  -0.00000  0.00000  1
