CIF file written using JARVIS-Tools package.
data_MnP4
_symmetry_space_group_name_H-M  'P-1'
_cell_length_a       5.14492
_cell_length_b       5.86638
_cell_length_c       5.89338
_cell_angle_alpha    110.776
_cell_angle_beta     115.865
_cell_angle_gamma    86.1629

_symmetry_Int_Tables_number  2
_chemical_formula_structural  MnP4
_chemical_formula_sum  Mn2P8
_cell_volume  148.83024340021564
_cell_formula_units_Z  2
loop_
  _symmetry_equiv_pos_site_id
 _symmetry_equiv_pos_as_xyz
 1  'x, y, z'
loop_
 _atom_site_type_symbol
 _atom_site_label
 _atom_site_symmetry_multiplicity
 _atom_site_fract_x
 _atom_site_fract_y
 _atom_site_fract_z
 _atom_site_fract_occupancy
 Mn  Mn1  1  0.00131  0.72409  0.21597  1
 Mn  Mn2  1  0.99869  0.27591  0.78403  1
 P  P1  1  0.44381  0.19727  0.04400  1
 P  P2  1  0.55619  0.80273  0.95600  1
 P  P3  1  0.44889  0.69530  0.51075  1
 P  P4  1  0.55111  0.30470  0.48925  1
 P  P5  1  0.12683  0.66833  0.88226  1
 P  P6  1  0.87317  0.33167  0.11774  1
 P  P7  1  0.87966  0.84832  0.57860  1
 P  P8  1  0.12034  0.15168  0.42140  1
