CIF file written using JARVIS-Tools package.
data_V4GaS8
_symmetry_space_group_name_H-M  'F-43m'
_cell_length_a       6.83252
_cell_length_b       6.83253
_cell_length_c       6.83253
_cell_angle_alpha    60
_cell_angle_beta     60
_cell_angle_gamma    60

_symmetry_Int_Tables_number  216
_chemical_formula_structural  V4GaS8
_chemical_formula_sum  V4GaS8
_cell_volume  225.54306211511272
_cell_formula_units_Z  1
loop_
  _symmetry_equiv_pos_site_id
 _symmetry_equiv_pos_as_xyz
 1  'x, y, z'
loop_
 _atom_site_type_symbol
 _atom_site_label
 _atom_site_symmetry_multiplicity
 _atom_site_fract_x
 _atom_site_fract_y
 _atom_site_fract_z
 _atom_site_fract_occupancy
 Ga  Ga1  1  0.00000  0.00000  0.00000  1
 S  S1  1  0.86328  0.41017  0.86328  1
 S  S2  1  0.41017  0.86328  0.86328  1
 S  S3  1  0.86328  0.86328  0.41017  1
 S  S4  1  0.86328  0.86328  0.86328  1
 S  S5  1  0.37056  0.88832  0.37056  1
 S  S6  1  0.37056  0.37056  0.37056  1
 S  S7  1  0.37056  0.37056  0.88832  1
 S  S8  1  0.88832  0.37056  0.37056  1
 V  V1  1  0.60409  0.18772  0.60409  1
 V  V2  1  0.18772  0.60409  0.60409  1
 V  V3  1  0.60409  0.60409  0.18772  1
 V  V4  1  0.60409  0.60409  0.60409  1
