CIF file written using JARVIS-Tools package.
data_AsCl2F3
_symmetry_space_group_name_H-M  'P4/n'
_cell_length_a       6.23817
_cell_length_b       8.58409
_cell_length_c       8.58409
_cell_angle_alpha    90
_cell_angle_beta     90
_cell_angle_gamma    90

_symmetry_Int_Tables_number  85
_chemical_formula_structural  AsCl2F3
_chemical_formula_sum  As4Cl8F2
_cell_volume  459.6694313039854
_cell_formula_units_Z  4
loop_
  _symmetry_equiv_pos_site_id
 _symmetry_equiv_pos_as_xyz
 1  'x, y, z'
loop_
 _atom_site_type_symbol
 _atom_site_label
 _atom_site_symmetry_multiplicity
 _atom_site_fract_x
 _atom_site_fract_y
 _atom_site_fract_z
 _atom_site_fract_occupancy
 As  As1  1  0.00000  0.75000  0.25000  1
 As  As2  1  0.32150  0.25000  0.25000  1
 As  As3  1  0.67850  0.75000  0.75000  1
 As  As4  1  0.00000  0.25000  0.75000  1
 Cl  Cl1  1  0.19909  0.79661  0.44177  1
 Cl  Cl2  1  0.80091  0.29661  0.94177  1
 Cl  Cl3  1  0.80091  0.55823  0.29661  1
 Cl  Cl4  1  0.19909  0.44177  0.70339  1
 Cl  Cl5  1  0.80091  0.20339  0.55823  1
 Cl  Cl6  1  0.19909  0.05823  0.79661  1
 Cl  Cl7  1  0.19909  0.70339  0.05823  1
 Cl  Cl8  1  0.80091  0.94177  0.20339  1
 F  F1  1  0.96000  0.75000  0.75000  1
 F  F2  1  0.39269  0.75000  0.75000  1
 F  F3  1  0.04000  0.25000  0.25000  1
 F  F4  1  0.32415  0.32653  0.05736  1
 F  F5  1  0.32415  0.17347  0.44264  1
 F  F6  1  0.32415  0.44264  0.32653  1
 F  F7  1  0.67585  0.94264  0.82653  1
 F  F8  1  0.67585  0.67347  0.94264  1
 F  F9  1  0.67585  0.82653  0.55736  1
 F  F10  1  0.67585  0.55736  0.67347  1
 F  F11  1  0.60731  0.25000  0.25000  1
 F  F12  1  0.32415  0.05736  0.17347  1
