CIF file written using JARVIS-Tools package.
data_Rb2Mn3Se4
_symmetry_space_group_name_H-M  'Ibam'
_cell_length_a       5.38586
_cell_length_b       9.26414
_cell_length_c       9.26413
_cell_angle_alpha    71.8892
_cell_angle_beta     73.1012
_cell_angle_gamma    73.1011

_symmetry_Int_Tables_number  72
_chemical_formula_structural  Rb2Mn3Se4
_chemical_formula_sum  Rb4Mn6Se8
_cell_volume  410.03984871431686
_cell_formula_units_Z  2
loop_
  _symmetry_equiv_pos_site_id
 _symmetry_equiv_pos_as_xyz
 1  'x, y, z'
loop_
 _atom_site_type_symbol
 _atom_site_label
 _atom_site_symmetry_multiplicity
 _atom_site_fract_x
 _atom_site_fract_y
 _atom_site_fract_z
 _atom_site_fract_occupancy
 Mn  Mn1  1  0.25000  0.00248  0.49752  1
 Mn  Mn2  1  0.25000  0.25000  0.25000  1
 Mn  Mn3  1  0.75000  0.50248  -0.00248  1
 Mn  Mn4  1  0.75000  0.75000  0.75000  1
 Mn  Mn5  1  0.75000  -0.00248  0.50248  1
 Mn  Mn6  1  0.25000  0.49752  0.00248  1
 Rb  Rb1  1  0.74991  0.87524  0.12476  1
 Rb  Rb2  1  0.25009  0.12476  0.87524  1
 Rb  Rb3  1  0.75009  0.37524  0.62476  1
 Rb  Rb4  1  0.24991  0.62476  0.37524  1
 Se  Se1  1  0.09497  0.52884  0.78014  1
 Se  Se2  1  0.40395  0.21986  0.47116  1
 Se  Se3  1  0.59497  0.28014  0.02884  1
 Se  Se4  1  0.90503  0.47116  0.21986  1
 Se  Se5  1  0.59605  0.78014  0.52884  1
 Se  Se6  1  0.40503  0.71986  0.97116  1
 Se  Se7  1  0.90395  0.97116  0.71986  1
 Se  Se8  1  0.09605  0.02884  0.28014  1
