CIF file written using JARVIS-Tools package.
data_NaSiAu3
_symmetry_space_group_name_H-M  'Pa-3'
_cell_length_a       9.04336
_cell_length_b       9.04336
_cell_length_c       9.04336
_cell_angle_alpha    90
_cell_angle_beta     90
_cell_angle_gamma    90

_symmetry_Int_Tables_number  205
_chemical_formula_structural  NaSiAu3
_chemical_formula_sum  Na8Si8Au24
_cell_volume  739.5880933833176
_cell_formula_units_Z  8
loop_
  _symmetry_equiv_pos_site_id
 _symmetry_equiv_pos_as_xyz
 1  'x, y, z'
loop_
 _atom_site_type_symbol
 _atom_site_label
 _atom_site_symmetry_multiplicity
 _atom_site_fract_x
 _atom_site_fract_y
 _atom_site_fract_z
 _atom_site_fract_occupancy
 Au  Au1  1  0.37288  0.59109  0.72714  1
 Au  Au2  1  0.09109  0.77286  0.62712  1
 Au  Au3  1  0.72714  0.12712  0.09109  1
 Au  Au4  1  0.22714  0.37288  0.90891  1
 Au  Au5  1  0.27286  0.62712  0.40891  1
 Au  Au6  1  0.40891  0.27286  0.62712  1
 Au  Au7  1  0.27286  0.87288  0.90891  1
 Au  Au8  1  0.12712  0.09109  0.72714  1
 Au  Au9  1  0.87288  0.90891  0.27286  1
 Au  Au10  1  0.09109  0.72714  0.12712  1
 Au  Au11  1  0.87288  0.59109  0.77286  1
 Au  Au12  1  0.59109  0.77286  0.87288  1
 Au  Au13  1  0.62712  0.09109  0.77286  1
 Au  Au14  1  0.22714  0.12712  0.40891  1
 Au  Au15  1  0.77286  0.62712  0.09109  1
 Au  Au16  1  0.72714  0.37288  0.59109  1
 Au  Au17  1  0.59109  0.72714  0.37288  1
 Au  Au18  1  0.62712  0.40891  0.27286  1
 Au  Au19  1  0.90891  0.27286  0.87288  1
 Au  Au20  1  0.77286  0.87288  0.59109  1
 Au  Au21  1  0.12712  0.40891  0.22714  1
 Au  Au22  1  0.40891  0.22714  0.12712  1
 Au  Au23  1  0.37288  0.90891  0.22714  1
 Au  Au24  1  0.90891  0.22714  0.37288  1
 Na  Na1  1  0.40197  0.90197  0.59803  1
 Na  Na2  1  0.59803  0.40197  0.90197  1
 Na  Na3  1  0.90197  0.59803  0.40197  1
 Na  Na4  1  0.90197  0.90197  0.90197  1
 Na  Na5  1  0.59803  0.09803  0.40197  1
 Na  Na6  1  0.40197  0.59803  0.09803  1
 Na  Na7  1  0.09803  0.40197  0.59803  1
 Na  Na8  1  0.09803  0.09803  0.09803  1
 Si  Si1  1  0.87581  0.12419  0.62419  1
 Si  Si2  1  0.12419  0.62419  0.87581  1
 Si  Si3  1  0.62419  0.62419  0.62419  1
 Si  Si4  1  0.87581  0.37581  0.12419  1
 Si  Si5  1  0.12419  0.87581  0.37581  1
 Si  Si6  1  0.62419  0.87581  0.12419  1
 Si  Si7  1  0.37581  0.12419  0.87581  1
 Si  Si8  1  0.37581  0.37581  0.37581  1
