CIF file written using JARVIS-Tools package.
data_YAl
_symmetry_space_group_name_H-M  'Cmcm'
_cell_length_a       3.91389
_cell_length_b       4.39629
_cell_length_c       6.0904
_cell_angle_alpha    90
_cell_angle_beta     108.743
_cell_angle_gamma    90

_symmetry_Int_Tables_number  63
_chemical_formula_structural  YAl
_chemical_formula_sum  Y2Al2
_cell_volume  99.23812311489728
_cell_formula_units_Z  2
loop_
  _symmetry_equiv_pos_site_id
 _symmetry_equiv_pos_as_xyz
 1  'x, y, z'
loop_
 _atom_site_type_symbol
 _atom_site_label
 _atom_site_symmetry_multiplicity
 _atom_site_fract_x
 _atom_site_fract_y
 _atom_site_fract_z
 _atom_site_fract_occupancy
 Al  Al1  1  0.56994  0.25000  0.13988  1
 Al  Al2  1  0.43006  0.75000  0.86012  1
 Y  Y1  1  0.84878  0.25000  0.69757  1
 Y  Y2  1  0.15122  0.75000  0.30243  1
