CIF file written using JARVIS-Tools package.
data_Al2S3O12
_symmetry_space_group_name_H-M  'R-3'
_cell_length_a       8.54176
_cell_length_b       8.54175
_cell_length_c       8.54176
_cell_angle_alpha    56.3619
_cell_angle_beta     56.362
_cell_angle_gamma    56.362

_symmetry_Int_Tables_number  148
_chemical_formula_structural  Al2S3O12
_chemical_formula_sum  Al4S6O24
_cell_volume  403.6028483206773
_cell_formula_units_Z  2
loop_
  _symmetry_equiv_pos_site_id
 _symmetry_equiv_pos_as_xyz
 1  'x, y, z'
loop_
 _atom_site_type_symbol
 _atom_site_label
 _atom_site_symmetry_multiplicity
 _atom_site_fract_x
 _atom_site_fract_y
 _atom_site_fract_z
 _atom_site_fract_occupancy
 Al  Al1  1  0.14296  0.14296  0.14296  1
 Al  Al2  1  0.85704  0.85704  0.85704  1
 Al  Al3  1  0.35218  0.35218  0.35218  1
 Al  Al4  1  0.64782  0.64782  0.64782  1
 O  O1  1  0.20255  0.99320  0.38080  1
 O  O2  1  0.99320  0.38080  0.20255  1
 O  O3  1  0.38080  0.20255  0.99320  1
 O  O4  1  0.10721  0.88548  0.73764  1
 O  O5  1  0.26236  0.89279  0.11452  1
 O  O6  1  0.11452  0.26236  0.89279  1
 O  O7  1  0.52102  0.45507  0.81708  1
 O  O8  1  0.61920  0.79745  0.00680  1
 O  O9  1  0.81708  0.52102  0.45507  1
 O  O10  1  0.45507  0.81708  0.52102  1
 O  O11  1  0.47898  0.54493  0.18292  1
 O  O12  1  0.18292  0.47898  0.54493  1
 O  O13  1  0.89279  0.11452  0.26236  1
 O  O14  1  0.00680  0.61920  0.79745  1
 O  O15  1  0.22741  0.15667  0.52018  1
 O  O16  1  0.79745  0.00680  0.61920  1
 O  O17  1  0.47982  0.77259  0.84333  1
 O  O18  1  0.84333  0.47982  0.77259  1
 O  O19  1  0.77259  0.84333  0.47982  1
 O  O20  1  0.73764  0.10721  0.88548  1
 O  O21  1  0.88548  0.73764  0.10721  1
 O  O22  1  0.15667  0.52018  0.22741  1
 O  O23  1  0.54493  0.18292  0.47898  1
 O  O24  1  0.52018  0.22741  0.15667  1
 S  S1  1  0.03641  0.46044  0.75152  1
 S  S2  1  0.96359  0.53956  0.24848  1
 S  S3  1  0.46044  0.75152  0.03641  1
 S  S4  1  0.24848  0.96359  0.53956  1
 S  S5  1  0.53956  0.24848  0.96359  1
 S  S6  1  0.75152  0.03641  0.46044  1
