CIF file written using JARVIS-Tools package.
data_Ca2FeN2
_symmetry_space_group_name_H-M  'C2/m'
_cell_length_a       4.94332
_cell_length_b       5.93089
_cell_length_c       6.51017
_cell_angle_alpha    64.1495
_cell_angle_beta     67.6872
_cell_angle_gamma    65.3709

_symmetry_Int_Tables_number  12
_chemical_formula_structural  Ca2FeN2
_chemical_formula_sum  Ca4Fe2N4
_cell_volume  151.50091202439722
_cell_formula_units_Z  2
loop_
  _symmetry_equiv_pos_site_id
 _symmetry_equiv_pos_as_xyz
 1  'x, y, z'
loop_
 _atom_site_type_symbol
 _atom_site_label
 _atom_site_symmetry_multiplicity
 _atom_site_fract_x
 _atom_site_fract_y
 _atom_site_fract_z
 _atom_site_fract_occupancy
 Ca  Ca1  1  0.68080  0.24551  0.39288  1
 Ca  Ca2  1  0.31920  0.75449  0.60712  1
 Ca  Ca3  1  0.03794  0.69761  0.22651  1
 Ca  Ca4  1  0.96206  0.30239  0.77349  1
 Fe  Fe1  1  0.37306  0.12560  0.12828  1
 Fe  Fe2  1  0.62694  0.87440  0.87172  1
 N  N1  1  0.19056  0.23903  0.37985  1
 N  N2  1  0.80944  0.76097  0.62015  1
 N  N3  1  0.48060  0.23775  0.80105  1
 N  N4  1  0.51940  0.76225  0.19895  1
