CIF file written using JARVIS-Tools package.
data_ScSi7Ir3
_symmetry_space_group_name_H-M  'R-3c'
_cell_length_a       8.01412
_cell_length_b       8.01412
_cell_length_c       8.01411
_cell_angle_alpha    56.5877
_cell_angle_beta     56.5877
_cell_angle_gamma    56.5877

_symmetry_Int_Tables_number  167
_chemical_formula_structural  ScSi7Ir3
_chemical_formula_sum  Sc2Si4Ir6
_cell_volume  335.26458086133516
_cell_formula_units_Z  2
loop_
  _symmetry_equiv_pos_site_id
 _symmetry_equiv_pos_as_xyz
 1  'x, y, z'
loop_
 _atom_site_type_symbol
 _atom_site_label
 _atom_site_symmetry_multiplicity
 _atom_site_fract_x
 _atom_site_fract_y
 _atom_site_fract_z
 _atom_site_fract_occupancy
 Ir  Ir1  1  0.07284  0.75000  0.42716  1
 Ir  Ir2  1  0.25000  0.57284  0.92716  1
 Ir  Ir3  1  0.92716  0.25000  0.57284  1
 Ir  Ir4  1  0.42716  0.07284  0.75000  1
 Ir  Ir5  1  0.75000  0.42716  0.07284  1
 Ir  Ir6  1  0.57284  0.92716  0.25000  1
 Sc  Sc1  1  0.50000  0.50000  0.50000  1
 Sc  Sc2  1  0.00000  0.00000  0.00000  1
 Si  Si1  1  0.56585  0.17278  0.35004  1
 Si  Si2  1  0.17278  0.35004  0.56585  1
 Si  Si3  1  0.64996  0.43415  0.82722  1
 Si  Si4  1  0.32722  0.93415  0.14996  1
 Si  Si5  1  0.67278  0.06585  0.85004  1
 Si  Si6  1  0.85004  0.67278  0.06585  1
 Si  Si7  1  0.06585  0.85004  0.67278  1
 Si  Si8  1  0.25000  0.25000  0.25000  1
 Si  Si9  1  0.43415  0.82722  0.64996  1
 Si  Si10  1  0.14996  0.32722  0.93415  1
 Si  Si11  1  0.93415  0.14996  0.32722  1
 Si  Si12  1  0.75000  0.75000  0.75000  1
 Si  Si13  1  0.35004  0.56585  0.17278  1
 Si  Si14  1  0.82722  0.64996  0.43415  1
