CIF file written using JARVIS-Tools package.
data_Zr2N2O
_symmetry_space_group_name_H-M  'C2'
_cell_length_a       5.56273
_cell_length_b       10.3095
_cell_length_c       5.56272
_cell_angle_alpha    105
_cell_angle_beta     59.2235
_cell_angle_gamma    89.733

_symmetry_Int_Tables_number  5
_chemical_formula_structural  Zr2N2O
_chemical_formula_sum  Zr8N8O4
_cell_volume  261.1131516463396
_cell_formula_units_Z  4
loop_
  _symmetry_equiv_pos_site_id
 _symmetry_equiv_pos_as_xyz
 1  'x, y, z'
loop_
 _atom_site_type_symbol
 _atom_site_label
 _atom_site_symmetry_multiplicity
 _atom_site_fract_x
 _atom_site_fract_y
 _atom_site_fract_z
 _atom_site_fract_occupancy
 N  N1  1  0.83304  0.63039  0.74601  1
 N  N2  1  0.32967  0.12756  0.75369  1
 N  N3  1  0.13438  0.61961  0.03658  1
 N  N4  1  0.62387  0.12244  0.04278  1
 N  N5  1  0.08053  0.87429  0.53725  1
 N  N6  1  0.67299  0.88214  0.25081  1
 N  N7  1  0.88132  0.36786  0.94487  1
 N  N8  1  0.58704  0.37571  0.54519  1
 O  O1  1  0.18510  0.38386  0.25401  1
 O  O2  1  0.37985  0.86614  0.93104  1
 O  O3  1  0.93204  0.12500  0.44296  1
 O  O4  1  0.44063  0.62500  0.43437  1
 Zr  Zr1  1  0.81709  0.53703  0.37230  1
 Zr  Zr2  1  0.67773  0.96252  0.64889  1
 Zr  Zr3  1  0.56363  0.28748  0.85975  1
 Zr  Zr4  1  0.90670  0.21149  0.13780  1
 Zr  Zr5  1  0.04699  0.78699  0.86801  1
 Zr  Zr6  1  0.16897  0.46301  0.66602  1
 Zr  Zr7  1  0.32369  0.03851  0.38181  1
 Zr  Zr8  1  0.41473  0.71297  0.14588  1
