CIF file written using JARVIS-Tools package.
data_KScF4
_symmetry_space_group_name_H-M  'C2/m'
_cell_length_a       4.10528
_cell_length_b       8.01392
_cell_length_c       13.3866
_cell_angle_alpha    107.305
_cell_angle_beta     90
_cell_angle_gamma    104.841

_symmetry_Int_Tables_number  12
_chemical_formula_structural  KScF4
_chemical_formula_sum  K4Sc4F6
_cell_volume  405.06262088605104
_cell_formula_units_Z  4
loop_
  _symmetry_equiv_pos_site_id
 _symmetry_equiv_pos_as_xyz
 1  'x, y, z'
loop_
 _atom_site_type_symbol
 _atom_site_label
 _atom_site_symmetry_multiplicity
 _atom_site_fract_x
 _atom_site_fract_y
 _atom_site_fract_z
 _atom_site_fract_occupancy
 F  F1  1  0.82010  0.64020  0.49859  1
 F  F2  1  0.00000  0.00000  0.00000  1
 F  F3  1  0.04518  0.09036  0.71517  1
 F  F4  1  0.95482  0.90964  0.28483  1
 F  F5  1  0.52975  0.05950  0.85609  1
 F  F6  1  0.47025  0.94050  0.14391  1
 F  F7  1  0.23646  0.47292  0.73200  1
 F  F8  1  0.76354  0.52708  0.26800  1
 F  F9  1  0.10424  0.20848  0.21754  1
 F  F10  1  0.89576  0.79152  0.78246  1
 F  F11  1  0.00000  0.00000  0.50000  1
 F  F12  1  0.61943  0.23886  0.61751  1
 F  F13  1  0.17990  0.35980  0.50141  1
 F  F14  1  0.83753  0.67507  0.07074  1
 F  F15  1  0.16247  0.32493  0.92926  1
 F  F16  1  0.38057  0.76114  0.38249  1
 K  K1  1  0.75582  0.51163  0.86412  1
 K  K2  1  0.24418  0.48837  0.13588  1
 K  K3  1  0.36662  0.73323  0.63624  1
 K  K4  1  0.63338  0.26677  0.36376  1
 Sc  Sc1  1  0.02763  0.05525  0.86041  1
 Sc  Sc2  1  0.12307  0.24613  0.61347  1
 Sc  Sc3  1  0.87693  0.75387  0.38653  1
 Sc  Sc4  1  0.97237  0.94475  0.13959  1
