CIF file written using JARVIS-Tools package.
data_GaTe
_symmetry_space_group_name_H-M  'P6_3/mmc'
_cell_length_a       4.12361
_cell_length_b       4.12361
_cell_length_c       16.998
_cell_angle_alpha    90
_cell_angle_beta     90
_cell_angle_gamma    120

_symmetry_Int_Tables_number  194
_chemical_formula_structural  GaTe
_chemical_formula_sum  Ga4Te4
_cell_volume  250.31425287140692
_cell_formula_units_Z  4
loop_
  _symmetry_equiv_pos_site_id
 _symmetry_equiv_pos_as_xyz
 1  'x, y, z'
loop_
 _atom_site_type_symbol
 _atom_site_label
 _atom_site_symmetry_multiplicity
 _atom_site_fract_x
 _atom_site_fract_y
 _atom_site_fract_z
 _atom_site_fract_occupancy
 Ga  Ga1  1  0.33333  0.66667  0.17773  1
 Ga  Ga2  1  0.66667  0.33333  0.67773  1
 Ga  Ga3  1  0.66667  0.33333  0.82227  1
 Ga  Ga4  1  0.33333  0.66667  0.32227  1
 Te  Te1  1  0.33333  0.66667  0.89738  1
 Te  Te2  1  0.66667  0.33333  0.39738  1
 Te  Te3  1  0.66667  0.33333  0.10262  1
 Te  Te4  1  0.33333  0.66667  0.60262  1
