CIF file written using JARVIS-Tools package.
data_Ba2Cu3P4
_symmetry_space_group_name_H-M  'Ibam'
_cell_length_a       6.25508
_cell_length_b       8.42325
_cell_length_c       8.42325
_cell_angle_alpha    68.1611
_cell_angle_beta     68.2043
_cell_angle_gamma    68.2042

_symmetry_Int_Tables_number  72
_chemical_formula_structural  Ba2Cu3P4
_chemical_formula_sum  Ba4Cu6P8
_cell_volume  368.2411153249676
_cell_formula_units_Z  2
loop_
  _symmetry_equiv_pos_site_id
 _symmetry_equiv_pos_as_xyz
 1  'x, y, z'
loop_
 _atom_site_type_symbol
 _atom_site_label
 _atom_site_symmetry_multiplicity
 _atom_site_fract_x
 _atom_site_fract_y
 _atom_site_fract_z
 _atom_site_fract_occupancy
 Ba  Ba1  1  0.39063  0.31295  0.90580  1
 Ba  Ba2  1  0.10937  0.09420  0.68705  1
 Ba  Ba3  1  0.89063  0.90580  0.31295  1
 Ba  Ba4  1  0.60937  0.68705  0.09420  1
 Cu  Cu1  1  0.75000  0.50000  0.50000  1
 Cu  Cu2  1  0.02971  0.72029  0.72029  1
 Cu  Cu3  1  0.25000  0.50000  0.50000  1
 Cu  Cu4  1  0.52971  0.72029  0.72029  1
 Cu  Cu5  1  0.97029  0.27971  0.27971  1
 Cu  Cu6  1  0.47029  0.27971  0.27971  1
 P  P1  1  0.15853  0.70951  0.97343  1
 P  P2  1  0.84147  0.29049  0.02657  1
 P  P3  1  0.65853  0.97343  0.70951  1
 P  P4  1  0.34147  0.02657  0.29049  1
 P  P5  1  0.62116  0.24648  0.51121  1
 P  P6  1  0.37884  0.75352  0.48879  1
 P  P7  1  0.87884  0.48879  0.75352  1
 P  P8  1  0.12116  0.51121  0.24648  1
