CIF file written using JARVIS-Tools package.
data_ThB2O5
_symmetry_space_group_name_H-M  'C2/c'
_cell_length_a       6.79423
_cell_length_b       6.79422
_cell_length_c       10.3141
_cell_angle_alpha    79.921
_cell_angle_beta     79.921
_cell_angle_gamma    61.7014

_symmetry_Int_Tables_number  15
_chemical_formula_structural  ThB2O5
_chemical_formula_sum  Th4B8O20
_cell_volume  410.4128000308658
_cell_formula_units_Z  4
loop_
  _symmetry_equiv_pos_site_id
 _symmetry_equiv_pos_as_xyz
 1  'x, y, z'
loop_
 _atom_site_type_symbol
 _atom_site_label
 _atom_site_symmetry_multiplicity
 _atom_site_fract_x
 _atom_site_fract_y
 _atom_site_fract_z
 _atom_site_fract_occupancy
 B  B1  1  0.43881  0.83037  0.14091  1
 B  B2  1  0.77277  0.27894  -0.00095  1
 B  B3  1  0.72106  0.22723  0.50095  1
 B  B4  1  0.27894  0.77277  0.49905  1
 B  B5  1  0.56119  0.16963  0.85909  1
 B  B6  1  0.16963  0.56119  0.35909  1
 B  B7  1  0.83037  0.43881  0.64091  1
 B  B8  1  0.22723  0.72106  0.00095  1
 O  O1  1  0.31996  0.05488  0.15726  1
 O  O2  1  0.64591  0.71959  0.18853  1
 O  O3  1  0.71959  0.64591  0.68853  1
 O  O4  1  0.35409  0.28041  0.81147  1
 O  O5  1  0.21602  0.83127  0.87510  1
 O  O6  1  0.94512  0.68004  0.34274  1
 O  O7  1  0.71158  0.36010  0.58985  1
 O  O8  1  0.63990  0.28842  0.91015  1
 O  O9  1  0.28842  0.63990  0.41015  1
 O  O10  1  0.36010  0.71158  0.08985  1
 O  O11  1  0.05488  0.31996  0.65726  1
 O  O12  1  0.28041  0.35409  0.31147  1
 O  O13  1  0.60124  0.10652  0.53193  1
 O  O14  1  0.10652  0.60124  0.03193  1
 O  O15  1  0.39876  0.89348  0.46807  1
 O  O16  1  0.68004  0.94512  0.84274  1
 O  O17  1  0.16873  0.78398  0.62490  1
 O  O18  1  0.78398  0.16873  0.12490  1
 O  O19  1  0.83127  0.21602  0.37510  1
 O  O20  1  0.89348  0.39876  0.96807  1
 Th  Th1  1  0.01776  0.61917  0.80630  1
 Th  Th2  1  0.98224  0.38083  0.19370  1
 Th  Th3  1  0.61917  0.01776  0.30630  1
 Th  Th4  1  0.38083  0.98224  0.69370  1
