CIF file written using JARVIS-Tools package.
data_Si3PH9
_symmetry_space_group_name_H-M  'P2_1/c'
_cell_length_a       5.99755
_cell_length_b       12.6621
_cell_length_c       9.46685
_cell_angle_alpha    90
_cell_angle_beta     93.6646
_cell_angle_gamma    90

_symmetry_Int_Tables_number  14
_chemical_formula_structural  Si3PH9
_chemical_formula_sum  Si2P4H36
_cell_volume  717.4563389421539
_cell_formula_units_Z  4
loop_
  _symmetry_equiv_pos_site_id
 _symmetry_equiv_pos_as_xyz
 1  'x, y, z'
loop_
 _atom_site_type_symbol
 _atom_site_label
 _atom_site_symmetry_multiplicity
 _atom_site_fract_x
 _atom_site_fract_y
 _atom_site_fract_z
 _atom_site_fract_occupancy
 H  H1  1  0.15121  0.68008  0.49471  1
 H  H2  1  0.15121  0.81992  0.99471  1
 H  H3  1  0.52865  0.72843  0.43365  1
 H  H4  1  0.85883  0.55453  0.58038  1
 H  H5  1  0.46601  0.55811  0.63523  1
 H  H6  1  0.85883  0.94547  0.08038  1
 H  H7  1  0.20842  0.39312  0.69410  1
 H  H8  1  0.20467  0.82561  0.32973  1
 H  H9  1  0.80889  0.98058  0.57688  1
 H  H10  1  0.19111  0.48058  0.92312  1
 H  H11  1  0.19111  0.01942  0.42312  1
 H  H12  1  0.84879  0.31992  0.50529  1
 H  H13  1  0.80889  0.51942  0.07688  1
 H  H14  1  0.18293  0.28739  0.90860  1
 H  H15  1  0.18293  0.21261  0.40860  1
 H  H16  1  0.81707  0.71261  0.09140  1
 H  H17  1  0.79158  0.89312  0.80590  1
 H  H18  1  0.47135  0.27157  0.56635  1
 H  H19  1  0.20842  0.10688  0.19410  1
 H  H20  1  0.79158  0.60688  0.30590  1
 H  H21  1  0.20467  0.67439  0.82973  1
 H  H22  1  0.79533  0.17439  0.67027  1
 H  H23  1  0.79533  0.32561  0.17027  1
 H  H24  1  0.81707  0.78739  0.59140  1
 H  H25  1  0.84879  0.18008  0.00529  1
 H  H26  1  0.52865  0.77157  0.93365  1
 H  H27  1  0.53399  0.05811  0.86477  1
 H  H28  1  0.47135  0.22843  0.06635  1
 H  H29  1  0.46601  0.94189  0.13523  1
 H  H30  1  0.24873  0.13146  0.69738  1
 H  H31  1  0.75127  0.63146  0.80262  1
 H  H32  1  0.75127  0.86854  0.30262  1
 H  H33  1  0.24873  0.36854  0.19738  1
 H  H34  1  0.14117  0.05453  0.91962  1
 H  H35  1  0.53399  0.44189  0.36477  1
 H  H36  1  0.14117  0.44547  0.41962  1
 P  P1  1  0.73098  0.38876  0.81236  1
 P  P2  1  0.26902  0.88876  0.68764  1
 P  P3  1  0.26902  0.61124  0.18764  1
 P  P4  1  0.73098  0.11124  0.31236  1
 Si  Si1  1  0.71018  0.28010  0.62026  1
 Si  Si2  1  0.11111  0.38774  0.83585  1
 Si  Si3  1  0.11111  0.11226  0.33585  1
 Si  Si4  1  0.88889  0.61226  0.16415  1
 Si  Si5  1  0.28982  0.78010  0.87974  1
 Si  Si6  1  0.29891  0.45443  0.30349  1
 Si  Si7  1  0.71018  0.21990  0.12026  1
 Si  Si8  1  0.28982  0.71990  0.37974  1
 Si  Si9  1  0.29891  0.04557  0.80349  1
 Si  Si10  1  0.70109  0.54557  0.69651  1
 Si  Si11  1  0.70109  0.95443  0.19651  1
 Si  Si12  1  0.88889  0.88774  0.66415  1
