CIF file written using JARVIS-Tools package.
data_CuBiW2O8
_symmetry_space_group_name_H-M  'P-1'
_cell_length_a       5.05341
_cell_length_b       6.10661
_cell_length_c       6.17917
_cell_angle_alpha    109.492
_cell_angle_beta     91.7099
_cell_angle_gamma    112.762

_symmetry_Int_Tables_number  2
_chemical_formula_structural  CuBiW2O8
_chemical_formula_sum  CuBiW2O8
_cell_volume  162.96297304437886
_cell_formula_units_Z  1
loop_
  _symmetry_equiv_pos_site_id
 _symmetry_equiv_pos_as_xyz
 1  'x, y, z'
loop_
 _atom_site_type_symbol
 _atom_site_label
 _atom_site_symmetry_multiplicity
 _atom_site_fract_x
 _atom_site_fract_y
 _atom_site_fract_z
 _atom_site_fract_occupancy
 Bi  Bi1  1  0.36160  0.90133  0.28870  1
 Cu  Cu1  1  0.86141  0.90120  0.78850  1
 O  O1  1  0.32996  0.21127  0.62613  1
 O  O2  1  0.82380  0.19857  0.81097  1
 O  O3  1  0.36159  0.64851  0.51205  1
 O  O4  1  0.85737  0.62845  0.21781  1
 O  O5  1  0.86585  0.17424  0.35952  1
 O  O6  1  0.39313  0.59135  0.95128  1
 O  O7  1  0.89928  0.60404  0.76635  1
 O  O8  1  0.36166  0.15419  0.06542  1
 W  W1  1  0.11687  0.42273  0.62072  1
 W  W2  1  0.60626  0.37992  0.95666  1
