CIF file written using JARVIS-Tools package.
data_Na4CoO3
_symmetry_space_group_name_H-M  'Cc'
_cell_length_a       5.75764
_cell_length_b       6.17198
_cell_length_c       8.15902
_cell_angle_alpha    111.348
_cell_angle_beta     90
_cell_angle_gamma    117.803

_symmetry_Int_Tables_number  9
_chemical_formula_structural  Na4CoO3
_chemical_formula_sum  Na8Co2O6
_cell_volume  233.74176553459046
_cell_formula_units_Z  2
loop_
  _symmetry_equiv_pos_site_id
 _symmetry_equiv_pos_as_xyz
 1  'x, y, z'
loop_
 _atom_site_type_symbol
 _atom_site_label
 _atom_site_symmetry_multiplicity
 _atom_site_fract_x
 _atom_site_fract_y
 _atom_site_fract_z
 _atom_site_fract_occupancy
 Co  Co1  1  0.01819  0.71962  0.18705  1
 Co  Co2  1  0.70143  0.71962  0.68705  1
 Na  Na1  1  0.43761  0.53184  0.97135  1
 Na  Na2  1  0.48098  0.37275  0.28935  1
 Na  Na3  1  0.92190  0.16397  0.06320  1
 Na  Na4  1  0.24207  0.16397  0.56320  1
 Na  Na5  1  0.65066  0.97263  0.38956  1
 Na  Na6  1  0.32197  0.97263  0.88956  1
 Na  Na7  1  0.89176  0.37275  0.78935  1
 Na  Na8  1  0.09423  0.53184  0.47135  1
 O  O1  1  0.25772  0.61440  0.22654  1
 O  O2  1  0.35668  0.61440  0.72654  1
 O  O3  1  0.69566  0.38122  0.04710  1
 O  O4  1  0.68557  0.38122  0.54710  1
 O  O5  1  0.02609  0.03785  0.27075  1
 O  O6  1  0.01176  0.03785  0.77075  1
