CIF file written using JARVIS-Tools package.
data_ZrAl
_symmetry_space_group_name_H-M  'Cmcm'
_cell_length_a       3.3795
_cell_length_b       4.29146
_cell_length_c       5.73133
_cell_angle_alpha    90
_cell_angle_beta     107.147
_cell_angle_gamma    90

_symmetry_Int_Tables_number  63
_chemical_formula_structural  ZrAl
_chemical_formula_sum  Zr2Al2
_cell_volume  79.42665962352856
_cell_formula_units_Z  2
loop_
  _symmetry_equiv_pos_site_id
 _symmetry_equiv_pos_as_xyz
 1  'x, y, z'
loop_
 _atom_site_type_symbol
 _atom_site_label
 _atom_site_symmetry_multiplicity
 _atom_site_fract_x
 _atom_site_fract_y
 _atom_site_fract_z
 _atom_site_fract_occupancy
 Al  Al1  1  0.57171  0.25000  0.14343  1
 Al  Al2  1  0.42829  0.75000  0.85657  1
 Zr  Zr1  1  0.83990  0.25000  0.67980  1
 Zr  Zr2  1  0.16010  0.75000  0.32020  1
