CIF file written using JARVIS-Tools package.
data_MgSnO2
_symmetry_space_group_name_H-M  'P-1'
_cell_length_a       3.36682
_cell_length_b       10.4923
_cell_length_c       8.53889
_cell_angle_alpha    62.4471
_cell_angle_beta     101.21
_cell_angle_gamma    89.7891

_symmetry_Int_Tables_number  2
_chemical_formula_structural  MgSnO2
_chemical_formula_sum  Mg4Sn4O8
_cell_volume  260.8059264963681
_cell_formula_units_Z  4
loop_
  _symmetry_equiv_pos_site_id
 _symmetry_equiv_pos_as_xyz
 1  'x, y, z'
loop_
 _atom_site_type_symbol
 _atom_site_label
 _atom_site_symmetry_multiplicity
 _atom_site_fract_x
 _atom_site_fract_y
 _atom_site_fract_z
 _atom_site_fract_occupancy
 Mg  Mg1  1  0.82103  0.86095  0.11544  1
 Mg  Mg2  1  0.19522  0.11156  0.86537  1
 Mg  Mg3  1  0.12533  0.90249  0.72397  1
 Mg  Mg4  1  0.89087  0.07003  0.25684  1
 O  O1  1  0.13887  0.33028  0.75383  1
 O  O2  1  0.41027  0.14396  0.29788  1
 O  O3  1  0.60593  0.82856  0.68293  1
 O  O4  1  0.87739  0.64224  0.22698  1
 O  O5  1  0.76350  0.09638  0.00313  1
 O  O6  1  -0.05250  0.85350  0.36549  1
 O  O7  1  0.25275  0.87615  0.97767  1
 O  O8  1  0.06872  0.11902  0.61532  1
 Sn  Sn1  1  0.31491  0.60910  0.09921  1
 Sn  Sn2  1  0.53194  0.71967  0.53310  1
 Sn  Sn3  1  0.48428  0.25285  0.44771  1
 Sn  Sn4  1  0.70134  0.36340  0.88160  1
