CIF file written using JARVIS-Tools package.
data_Mn2OF4
_symmetry_space_group_name_H-M  'Cmc2_1'
_cell_length_a       2.7671
_cell_length_b       4.99114
_cell_length_c       11.7485
_cell_angle_alpha    90
_cell_angle_beta     90
_cell_angle_gamma    106.093

_symmetry_Int_Tables_number  36
_chemical_formula_structural  Mn2OF4
_chemical_formula_sum  Mn4O2F8
_cell_volume  155.8994747769652
_cell_formula_units_Z  2
loop_
  _symmetry_equiv_pos_site_id
 _symmetry_equiv_pos_as_xyz
 1  'x, y, z'
loop_
 _atom_site_type_symbol
 _atom_site_label
 _atom_site_symmetry_multiplicity
 _atom_site_fract_x
 _atom_site_fract_y
 _atom_site_fract_z
 _atom_site_fract_occupancy
 F  F1  1  0.18292  0.36583  0.05812  1
 F  F2  1  0.12283  0.24565  0.45023  1
 F  F3  1  0.45641  0.91281  0.14271  1
 F  F4  1  0.38109  0.76218  0.36576  1
 F  F5  1  0.61891  0.23782  0.86576  1
 F  F6  1  0.54359  0.08719  0.64271  1
 F  F7  1  0.81708  0.63417  0.55812  1
 F  F8  1  0.87717  0.75435  0.95023  1
 Mn  Mn1  1  0.08145  0.16289  0.19105  1
 Mn  Mn2  1  0.25239  0.50477  0.90361  1
 Mn  Mn3  1  0.74761  0.49523  0.40361  1
 Mn  Mn4  1  0.91855  0.83711  0.69105  1
 O  O1  1  0.33027  0.66055  0.76584  1
 O  O2  1  0.66973  0.33945  0.26584  1
