CIF file written using JARVIS-Tools package.
data_V6C5
_symmetry_space_group_name_H-M  'P3_112'
_cell_length_a       5.11165
_cell_length_b       5.11165
_cell_length_c       14.3867
_cell_angle_alpha    90
_cell_angle_beta     90
_cell_angle_gamma    120

_symmetry_Int_Tables_number  151
_chemical_formula_structural  V6C5
_chemical_formula_sum  V8C5
_cell_volume  325.54713174692887
_cell_formula_units_Z  3
loop_
  _symmetry_equiv_pos_site_id
 _symmetry_equiv_pos_as_xyz
 1  'x, y, z'
loop_
 _atom_site_type_symbol
 _atom_site_label
 _atom_site_symmetry_multiplicity
 _atom_site_fract_x
 _atom_site_fract_y
 _atom_site_fract_z
 _atom_site_fract_occupancy
 C  C1  1  0.89167  0.44584  0.00000  1
 C  C2  1  0.55416  0.10833  0.66667  1
 C  C3  1  0.21987  0.78013  0.83333  1
 C  C4  1  0.21987  0.43975  0.16667  1
 C  C5  1  0.56025  0.78013  0.50000  1
 C  C6  1  0.55600  0.11199  0.16667  1
 C  C7  1  0.88801  0.44400  0.50000  1
 C  C8  1  0.55600  0.44400  0.83333  1
 C  C9  1  0.89223  0.78446  0.16667  1
 C  C10  1  0.21554  0.10777  0.50000  1
 C  C11  1  0.22033  0.77967  0.33333  1
 C  C12  1  0.22033  0.44066  0.66667  1
 C  C13  1  0.55934  0.77967  0.00000  1
 C  C14  1  0.55416  0.44584  0.33333  1
 C  C15  1  0.89223  0.10777  0.83333  1
 V  V1  1  0.52771  0.11072  0.41771  1
 V  V2  1  0.24868  0.47071  0.41848  1
 V  V3  1  0.22203  0.47071  0.91486  1
 V  V4  1  0.52929  0.75132  0.24819  1
 V  V5  1  0.24868  0.77797  0.58152  1
 V  V6  1  0.58301  0.47229  0.08438  1
 V  V7  1  0.88928  0.41699  0.75104  1
 V  V8  1  0.86500  0.11167  0.09024  1
 V  V9  1  0.58301  0.11072  0.91562  1
 V  V10  1  0.88928  0.47229  0.24896  1
 V  V11  1  0.52771  0.41699  0.58229  1
 V  V12  1  0.24667  0.11167  0.24310  1
 V  V13  1  0.86500  0.75333  0.90976  1
 V  V14  1  0.88833  0.13500  0.57643  1
 V  V15  1  0.24667  0.13500  0.75690  1
 V  V16  1  0.88833  0.75333  0.42357  1
 V  V17  1  0.22203  0.75132  0.08514  1
 V  V18  1  0.52929  0.77797  0.75181  1
