CIF file written using JARVIS-Tools package.
data_MgVBiO5
_symmetry_space_group_name_H-M  'P2_1/c'
_cell_length_a       5.34778
_cell_length_b       11.6523
_cell_length_c       7.91758
_cell_angle_alpha    90
_cell_angle_beta     113.001
_cell_angle_gamma    90

_symmetry_Int_Tables_number  14
_chemical_formula_structural  MgVBiO5
_chemical_formula_sum  Mg4V4Bi4O20
_cell_volume  454.14879192966157
_cell_formula_units_Z  4
loop_
  _symmetry_equiv_pos_site_id
 _symmetry_equiv_pos_as_xyz
 1  'x, y, z'
loop_
 _atom_site_type_symbol
 _atom_site_label
 _atom_site_symmetry_multiplicity
 _atom_site_fract_x
 _atom_site_fract_y
 _atom_site_fract_z
 _atom_site_fract_occupancy
 Bi  Bi1  1  0.06700  0.59707  0.67901  1
 Bi  Bi2  1  0.93300  0.09707  0.82099  1
 Bi  Bi3  1  0.06700  0.90293  0.17901  1
 Bi  Bi4  1  0.93300  0.40293  0.32099  1
 Mg  Mg1  1  0.55193  0.07868  0.17616  1
 Mg  Mg2  1  0.55193  0.42132  0.67616  1
 Mg  Mg3  1  0.44807  0.57868  0.32384  1
 Mg  Mg4  1  0.44807  0.92132  0.82384  1
 O  O1  1  0.29946  0.06949  0.32646  1
 O  O2  1  0.15093  0.82467  0.63375  1
 O  O3  1  0.84907  0.32467  0.86625  1
 O  O4  1  0.25535  0.42765  0.17346  1
 O  O5  1  0.67007  0.71412  0.48379  1
 O  O6  1  0.67007  0.78588  0.98379  1
 O  O7  1  0.29946  0.43051  0.82646  1
 O  O8  1  0.70054  0.56949  0.17354  1
 O  O9  1  0.76046  0.47265  0.51596  1
 O  O10  1  0.74465  0.92765  0.32654  1
 O  O11  1  0.25535  0.07235  0.67346  1
 O  O12  1  0.76046  0.02735  0.01596  1
 O  O13  1  0.32993  0.21412  0.01621  1
 O  O14  1  0.23954  0.97265  0.98404  1
 O  O15  1  0.23954  0.52735  0.48404  1
 O  O16  1  0.84907  0.17533  0.36625  1
 O  O17  1  0.70054  0.93051  0.67354  1
 O  O18  1  0.32993  0.28588  0.51621  1
 O  O19  1  0.74465  0.57235  0.82654  1
 O  O20  1  0.15093  0.67533  0.13375  1
 V  V1  1  0.19060  0.14905  0.47258  1
 V  V2  1  0.80940  0.85095  0.52742  1
 V  V3  1  0.80940  0.64905  0.02742  1
 V  V4  1  0.19060  0.35095  0.97258  1
