CIF file written using JARVIS-Tools package.
data_Dy3MnB7
_symmetry_space_group_name_H-M  'Cmcm'
_cell_length_a       3.44704
_cell_length_b       8.04901
_cell_length_c       9.29013
_cell_angle_alpha    90
_cell_angle_beta     90
_cell_angle_gamma    102.364

_symmetry_Int_Tables_number  63
_chemical_formula_structural  Dy3MnB7
_chemical_formula_sum  Dy6Mn2B4
_cell_volume  251.77856118995297
_cell_formula_units_Z  2
loop_
  _symmetry_equiv_pos_site_id
 _symmetry_equiv_pos_as_xyz
 1  'x, y, z'
loop_
 _atom_site_type_symbol
 _atom_site_label
 _atom_site_symmetry_multiplicity
 _atom_site_fract_x
 _atom_site_fract_y
 _atom_site_fract_z
 _atom_site_fract_occupancy
 B  B1  1  0.27277  0.54555  0.53282  1
 B  B2  1  0.53953  0.07907  0.75000  1
 B  B3  1  0.47820  0.95640  0.90167  1
 B  B4  1  0.52180  0.04360  0.09833  1
 B  B5  1  0.52180  0.04360  0.40167  1
 B  B6  1  0.47820  0.95640  0.59833  1
 B  B7  1  0.36995  0.73991  0.84719  1
 B  B8  1  0.63005  0.26009  0.15281  1
 B  B9  1  0.27277  0.54555  0.96718  1
 B  B10  1  0.46047  0.92093  0.25000  1
 B  B11  1  0.72723  0.45445  0.46718  1
 B  B12  1  0.36995  0.73991  0.65281  1
 B  B13  1  0.63005  0.26009  0.34719  1
 B  B14  1  0.72723  0.45445  0.03282  1
 Dy  Dy1  1  0.89583  0.79167  0.06069  1
 Dy  Dy2  1  0.24094  0.48189  0.25000  1
 Dy  Dy3  1  0.75906  0.51811  0.75000  1
 Dy  Dy4  1  0.10417  0.20833  0.56069  1
 Dy  Dy5  1  0.89583  0.79167  0.43931  1
 Dy  Dy6  1  0.10417  0.20833  0.93931  1
 Mn  Mn1  1  0.05396  0.10792  0.25000  1
 Mn  Mn2  1  0.94604  0.89208  0.75000  1
