CIF file written using JARVIS-Tools package.
data_TaTe4Ir
_symmetry_space_group_name_H-M  'Pmn2_1'
_cell_length_a       3.84206
_cell_length_b       12.6183
_cell_length_c       13.472
_cell_angle_alpha    90
_cell_angle_beta     90
_cell_angle_gamma    90

_symmetry_Int_Tables_number  31
_chemical_formula_structural  TaTe4Ir
_chemical_formula_sum  Ta4Te6Ir4
_cell_volume  653.1251681651443
_cell_formula_units_Z  4
loop_
  _symmetry_equiv_pos_site_id
 _symmetry_equiv_pos_as_xyz
 1  'x, y, z'
loop_
 _atom_site_type_symbol
 _atom_site_label
 _atom_site_symmetry_multiplicity
 _atom_site_fract_x
 _atom_site_fract_y
 _atom_site_fract_z
 _atom_site_fract_occupancy
 Ir  Ir1  1  0.50000  0.74479  0.99199  1
 Ir  Ir2  1  0.50000  0.96575  0.49982  1
 Ir  Ir3  1  0.00000  0.03425  -0.00018  1
 Ir  Ir4  1  0.00000  0.25521  0.49199  1
 Ta  Ta1  1  0.00000  0.55361  0.00388  1
 Ta  Ta2  1  0.50000  0.44639  0.50388  1
 Ta  Ta3  1  0.00000  0.77138  0.49144  1
 Ta  Ta4  1  0.50000  0.22862  0.99144  1
 Te  Te1  1  0.00000  0.91469  0.63725  1
 Te  Te2  1  0.50000  0.60423  0.14613  1
 Te  Te3  1  0.00000  0.39577  0.64613  1
 Te  Te4  1  0.50000  0.65279  0.60596  1
 Te  Te5  1  0.00000  0.34721  0.10596  1
 Te  Te6  1  0.50000  0.82222  0.34931  1
 Te  Te7  1  0.00000  0.17778  0.84931  1
 Te  Te8  1  0.50000  0.93504  0.89588  1
 Te  Te9  1  0.00000  0.06496  0.39588  1
 Te  Te10  1  0.50000  0.43456  0.89157  1
 Te  Te11  1  0.00000  0.69272  0.85450  1
 Te  Te12  1  0.50000  0.30728  0.35450  1
 Te  Te13  1  0.00000  0.84418  0.09532  1
 Te  Te14  1  0.50000  0.15582  0.59532  1
 Te  Te15  1  0.50000  0.08531  0.13725  1
 Te  Te16  1  0.00000  0.56544  0.39157  1
