CIF file written using JARVIS-Tools package.
data_Y2SiCO7
_symmetry_space_group_name_H-M  'P-1'
_cell_length_a       6.5005
_cell_length_b       6.61759
_cell_length_c       6.67408
_cell_angle_alpha    95.5762
_cell_angle_beta     116.312
_cell_angle_gamma    92.7396

_symmetry_Int_Tables_number  2
_chemical_formula_structural  Y2SiCO7
_chemical_formula_sum  Y4Si2C2O4
_cell_volume  254.8072298987845
_cell_formula_units_Z  2
loop_
  _symmetry_equiv_pos_site_id
 _symmetry_equiv_pos_as_xyz
 1  'x, y, z'
loop_
 _atom_site_type_symbol
 _atom_site_label
 _atom_site_symmetry_multiplicity
 _atom_site_fract_x
 _atom_site_fract_y
 _atom_site_fract_z
 _atom_site_fract_occupancy
 C  C1  1  0.80490  0.58887  0.26701  1
 C  C2  1  0.19510  0.41113  0.73299  1
 O  O1  1  0.88758  0.96715  0.65880  1
 O  O2  1  0.11242  0.03285  0.34120  1
 O  O3  1  0.34398  0.28416  0.74960  1
 O  O4  1  0.65602  0.71584  0.25040  1
 O  O5  1  0.02263  0.64646  0.37837  1
 O  O6  1  0.47869  0.75115  0.56145  1
 O  O7  1  0.26609  0.59774  0.83453  1
 O  O8  1  0.97737  0.35354  0.62163  1
 O  O9  1  0.33188  0.98377  0.08772  1
 O  O10  1  0.52131  0.24885  0.43855  1
 O  O11  1  0.66812  0.01623  0.91228  1
 O  O12  1  0.73391  0.40226  0.16547  1
 O  O13  1  0.87345  0.66675  0.90797  1
 O  O14  1  0.12655  0.33325  0.09203  1
 Si  Si1  1  0.73708  0.84140  0.75880  1
 Si  Si2  1  0.26292  0.15860  0.24120  1
 Y  Y1  1  0.74888  0.08580  0.29854  1
 Y  Y2  1  0.74349  0.33150  0.81163  1
 Y  Y3  1  0.25112  0.91420  0.70146  1
 Y  Y4  1  0.25651  0.66850  0.18837  1
