CIF file written using JARVIS-Tools package.
data_LiMn2S4
_symmetry_space_group_name_H-M  'Fd-3m'
_cell_length_a       6.82718
_cell_length_b       6.82717
_cell_length_c       6.82769
_cell_angle_alpha    119.998
_cell_angle_beta     119.997
_cell_angle_gamma    90

_symmetry_Int_Tables_number  227
_chemical_formula_structural  LiMn2S4
_chemical_formula_sum  Li2Mn4S8
_cell_volume  225.0475171834467
_cell_formula_units_Z  2
loop_
  _symmetry_equiv_pos_site_id
 _symmetry_equiv_pos_as_xyz
 1  'x, y, z'
loop_
 _atom_site_type_symbol
 _atom_site_label
 _atom_site_symmetry_multiplicity
 _atom_site_fract_x
 _atom_site_fract_y
 _atom_site_fract_z
 _atom_site_fract_occupancy
 Li  Li1  1  0.37500  0.62500  0.75000  1
 Li  Li2  1  0.62500  0.37500  0.25000  1
 Mn  Mn1  1  -0.00000  0.50000  0.00000  1
 Mn  Mn2  1  0.00000  -0.00000  0.50000  1
 Mn  Mn3  1  0.50000  -0.00000  0.50000  1
 Mn  Mn4  1  0.00000  0.00000  0.00000  1
 S  S1  1  0.76090  0.78259  0.52180  1
 S  S2  1  0.76080  0.23910  0.97821  1
 S  S3  1  0.21741  0.23910  0.97821  1
 S  S4  1  0.23910  0.21741  0.47821  1
 S  S5  1  0.23910  0.76080  0.47820  1
 S  S6  1  0.23920  0.76090  0.02180  1
 S  S7  1  0.76090  0.23920  0.52179  1
 S  S8  1  0.78259  0.76090  0.02179  1
