CIF file written using JARVIS-Tools package.
data_PrMgPt
_symmetry_space_group_name_H-M  'P-62m'
_cell_length_a       7.59585
_cell_length_b       7.59585
_cell_length_c       4.1518
_cell_angle_alpha    90
_cell_angle_beta     90
_cell_angle_gamma    120

_symmetry_Int_Tables_number  189
_chemical_formula_structural  PrMgPt
_chemical_formula_sum  Pr3Mg3Pt3
_cell_volume  207.45353564299936
_cell_formula_units_Z  3
loop_
  _symmetry_equiv_pos_site_id
 _symmetry_equiv_pos_as_xyz
 1  'x, y, z'
loop_
 _atom_site_type_symbol
 _atom_site_label
 _atom_site_symmetry_multiplicity
 _atom_site_fract_x
 _atom_site_fract_y
 _atom_site_fract_z
 _atom_site_fract_occupancy
 Mg  Mg1  1  0.76030  0.76030  0.50000  1
 Mg  Mg2  1  0.00000  0.23970  0.50000  1
 Mg  Mg3  1  0.23970  0.00000  0.50000  1
 Pr  Pr1  1  -0.00000  0.58755  0.00000  1
 Pr  Pr2  1  0.58755  -0.00000  0.00000  1
 Pr  Pr3  1  0.41245  0.41245  0.00000  1
 Pt  Pt1  1  0.00000  0.00000  0.00000  1
 Pt  Pt2  1  0.33333  0.66667  0.50000  1
 Pt  Pt3  1  0.66667  0.33333  0.50000  1
