CIF file written using JARVIS-Tools package.
data_YbSn2Pd
_symmetry_space_group_name_H-M  'Cmcm'
_cell_length_a       4.45178
_cell_length_b       5.9632
_cell_length_c       7.47367
_cell_angle_alpha    90
_cell_angle_beta     90
_cell_angle_gamma    111.918

_symmetry_Int_Tables_number  63
_chemical_formula_structural  YbSn2Pd
_chemical_formula_sum  Yb2Sn4Pd2
_cell_volume  184.06228510186983
_cell_formula_units_Z  2
loop_
  _symmetry_equiv_pos_site_id
 _symmetry_equiv_pos_as_xyz
 1  'x, y, z'
loop_
 _atom_site_type_symbol
 _atom_site_label
 _atom_site_symmetry_multiplicity
 _atom_site_fract_x
 _atom_site_fract_y
 _atom_site_fract_z
 _atom_site_fract_occupancy
 Pd  Pd1  1  0.69849  0.39699  0.75000  1
 Pd  Pd2  1  0.30151  0.60301  0.25000  1
 Sn  Sn1  1  0.13827  0.27655  0.54219  1
 Sn  Sn2  1  0.86173  0.72345  0.45781  1
 Sn  Sn3  1  0.13827  0.27655  0.95781  1
 Sn  Sn4  1  0.86173  0.72345  0.04219  1
 Yb  Yb1  1  0.57333  0.14665  0.25000  1
 Yb  Yb2  1  0.42667  0.85335  0.75000  1
