CIF file written using JARVIS-Tools package.
data_Ba2Mn2Sb2O
_symmetry_space_group_name_H-M  'P6_3/mmc'
_cell_length_a       4.72676
_cell_length_b       4.72676
_cell_length_c       19.9236
_cell_angle_alpha    90
_cell_angle_beta     90
_cell_angle_gamma    120

_symmetry_Int_Tables_number  194
_chemical_formula_structural  Ba2Mn2Sb2O
_chemical_formula_sum  Ba4Mn4Sb4O2
_cell_volume  385.50186686884643
_cell_formula_units_Z  2
loop_
  _symmetry_equiv_pos_site_id
 _symmetry_equiv_pos_as_xyz
 1  'x, y, z'
loop_
 _atom_site_type_symbol
 _atom_site_label
 _atom_site_symmetry_multiplicity
 _atom_site_fract_x
 _atom_site_fract_y
 _atom_site_fract_z
 _atom_site_fract_occupancy
 Ba  Ba1  1  0.00000  0.00000  0.50000  1
 Ba  Ba2  1  0.00000  0.00000  0.00000  1
 Ba  Ba3  1  0.00000  0.00000  0.75000  1
 Ba  Ba4  1  0.00000  0.00000  0.25000  1
 Mn  Mn1  1  0.66667  0.33333  0.14935  1
 Mn  Mn2  1  0.66667  0.33333  0.35065  1
 Mn  Mn3  1  0.33333  0.66667  0.85065  1
 Mn  Mn4  1  0.33333  0.66667  0.64935  1
 O  O1  1  0.66667  0.33333  0.25000  1
 O  O2  1  0.33333  0.66667  0.75000  1
 Sb  Sb1  1  0.66667  0.33333  0.61404  1
 Sb  Sb2  1  0.66667  0.33333  0.88596  1
 Sb  Sb3  1  0.33333  0.66667  0.38596  1
 Sb  Sb4  1  0.33333  0.66667  0.11404  1
