CIF file written using JARVIS-Tools package.
data_Si
_symmetry_space_group_name_H-M  'Cmcm'
_cell_length_a       3.49165
_cell_length_b       3.5504
_cell_length_c       5.64535
_cell_angle_alpha    108.328
_cell_angle_beta     90
_cell_angle_gamma    90

_symmetry_Int_Tables_number  63
_chemical_formula_structural  Si
_chemical_formula_sum  Si4
_cell_volume  66.43398375556255
_cell_formula_units_Z  4
loop_
  _symmetry_equiv_pos_site_id
 _symmetry_equiv_pos_as_xyz
 1  'x, y, z'
loop_
 _atom_site_type_symbol
 _atom_site_label
 _atom_site_symmetry_multiplicity
 _atom_site_fract_x
 _atom_site_fract_y
 _atom_site_fract_z
 _atom_site_fract_occupancy
 Si  Si1  1  0.00000  0.64190  0.78380  1
 Si  Si2  1  0.00000  0.40418  0.30836  1
 Si  Si3  1  0.50000  0.84856  0.19712  1
 Si  Si4  1  0.50000  0.08628  0.67256  1
