CIF file written using JARVIS-Tools package.
data_Lu2O3
_symmetry_space_group_name_H-M  'Ia-3'
_cell_length_a       8.94288
_cell_length_b       8.94288
_cell_length_c       8.94288
_cell_angle_alpha    109.471
_cell_angle_beta     109.471
_cell_angle_gamma    109.471

_symmetry_Int_Tables_number  206
_chemical_formula_structural  Lu2O3
_chemical_formula_sum  Lu6O24
_cell_volume  550.5679475275318
_cell_formula_units_Z  8
loop_
  _symmetry_equiv_pos_site_id
 _symmetry_equiv_pos_as_xyz
 1  'x, y, z'
loop_
 _atom_site_type_symbol
 _atom_site_label
 _atom_site_symmetry_multiplicity
 _atom_site_fract_x
 _atom_site_fract_y
 _atom_site_fract_z
 _atom_site_fract_occupancy
 Lu  Lu1  1  0.50000  0.50000  0.50000  1
 Lu  Lu2  1  0.00000  0.00000  0.50000  1
 Lu  Lu3  1  0.96666  0.25000  0.21666  1
 Lu  Lu4  1  -0.00000  0.50000  0.00000  1
 Lu  Lu5  1  0.25000  0.21666  0.96666  1
 Lu  Lu6  1  0.28334  0.53334  0.75000  1
 Lu  Lu7  1  0.53334  0.75000  0.28334  1
 Lu  Lu8  1  0.21666  0.96666  0.25000  1
 Lu  Lu9  1  0.50000  0.00000  -0.00000  1
 Lu  Lu10  1  0.75000  0.28334  0.53334  1
 Lu  Lu11  1  0.71666  0.46666  0.25000  1
 Lu  Lu12  1  0.46666  0.25000  0.71666  1
 Lu  Lu13  1  0.78334  0.03334  0.75000  1
 Lu  Lu14  1  0.03334  0.75000  0.78334  1
 Lu  Lu15  1  0.25000  0.71666  0.46666  1
 Lu  Lu16  1  0.75000  0.78334  0.03334  1
 O  O1  1  0.26111  0.77263  0.72844  1
 O  O2  1  0.48848  0.76111  0.03267  1
 O  O3  1  0.01152  0.04419  0.27263  1
 O  O4  1  0.46733  0.22844  0.45581  1
 O  O5  1  0.77156  0.54419  0.53267  1
 O  O6  1  0.77263  0.72844  0.26111  1
 O  O7  1  0.72737  0.98848  0.95581  1
 O  O8  1  0.53267  0.77156  0.54419  1
 O  O9  1  0.04419  0.27263  0.01152  1
 O  O10  1  0.96733  0.51152  0.23889  1
 O  O11  1  0.27156  0.73889  0.22737  1
 O  O12  1  0.72844  0.26111  0.77263  1
 O  O13  1  0.45581  0.46733  0.22844  1
 O  O14  1  0.22844  0.45581  0.46733  1
 O  O15  1  0.27263  0.01152  0.04419  1
 O  O16  1  0.22737  0.27156  0.73889  1
 O  O17  1  0.98848  0.95581  0.72737  1
 O  O18  1  0.03267  0.48848  0.76111  1
 O  O19  1  0.73889  0.22737  0.27156  1
 O  O20  1  0.23889  0.96733  0.51152  1
 O  O21  1  0.54419  0.53267  0.77156  1
 O  O22  1  0.95581  0.72737  0.98848  1
 O  O23  1  0.76111  0.03267  0.48848  1
 O  O24  1  0.51152  0.23889  0.96733  1
