data_image0
_chemical_formula_structural       MnO6V2
_chemical_formula_sum              "Mn1 O6 V2"
_cell_length_a       3.55794
_cell_length_b       4.95672
_cell_length_c       6.6676
_cell_angle_alpha    112.393
_cell_angle_beta     90
_cell_angle_gamma    111.033

_space_group_name_H-M_alt    "P 1"
_space_group_IT_number       1

loop_
  _space_group_symop_operation_xyz
  'x, y, z'

loop_
  _atom_site_type_symbol
  _atom_site_label
  _atom_site_symmetry_multiplicity
  _atom_site_fract_x
  _atom_site_fract_y
  _atom_site_fract_z
  _atom_site_occupancy
  Mn  Mn1       1.0  0.00000  0.00000  0.00000  1.0000
  O   O1        1.0  0.65800  0.31500  0.11300  1.0000
  O   O2        1.0  0.97700  0.95300  0.29500  1.0000
  O   O3        1.0  0.30700  0.61400  0.43500  1.0000
  O   O4        1.0  0.69300  0.38600  0.56500  1.0000
  O   O5        1.0  0.02330  0.04670  0.70500  1.0000
  O   O6        1.0  0.34200  0.68500  0.88700  1.0000
  V   V1        1.0  0.81700  0.63300  0.36100  1.0000
  V   V2        1.0  0.18300  0.36700  0.63900  1.0000
