CIF file written using JARVIS-Tools package.
data_Ca2CoN2
_symmetry_space_group_name_H-M  'C2/m'
_cell_length_a       4.91148
_cell_length_b       5.88701
_cell_length_c       6.44655
_cell_angle_alpha    65.698
_cell_angle_beta     67.6081
_cell_angle_gamma    65.3455

_symmetry_Int_Tables_number  12
_chemical_formula_structural  Ca2CoN2
_chemical_formula_sum  Ca4Co2N4
_cell_volume  149.38384766182682
_cell_formula_units_Z  2
loop_
  _symmetry_equiv_pos_site_id
 _symmetry_equiv_pos_as_xyz
 1  'x, y, z'
loop_
 _atom_site_type_symbol
 _atom_site_label
 _atom_site_symmetry_multiplicity
 _atom_site_fract_x
 _atom_site_fract_y
 _atom_site_fract_z
 _atom_site_fract_occupancy
 Ca  Ca1  1  0.68257  0.23616  0.39870  1
 Ca  Ca2  1  0.31743  0.76384  0.60130  1
 Ca  Ca3  1  0.04321  0.68758  0.22599  1
 Ca  Ca4  1  0.95679  0.31242  0.77401  1
 Co  Co1  1  0.37493  0.12661  0.12354  1
 Co  Co2  1  0.62507  0.87339  0.87646  1
 N  N1  1  0.18644  0.23506  0.39206  1
 N  N2  1  0.81356  0.76494  0.60794  1
 N  N3  1  0.47710  0.24060  0.80521  1
 N  N4  1  0.52290  0.75940  0.19479  1
