CIF file written using JARVIS-Tools package.
data_Mg2BiPO6
_symmetry_space_group_name_H-M  'Pnma'
_cell_length_a       5.32756
_cell_length_b       7.85242
_cell_length_c       11.9398
_cell_angle_alpha    90
_cell_angle_beta     90
_cell_angle_gamma    90

_symmetry_Int_Tables_number  62
_chemical_formula_structural  Mg2BiPO6
_chemical_formula_sum  Mg8Bi4P4O24
_cell_volume  499.49162510544716
_cell_formula_units_Z  4
loop_
  _symmetry_equiv_pos_site_id
 _symmetry_equiv_pos_as_xyz
 1  'x, y, z'
loop_
 _atom_site_type_symbol
 _atom_site_label
 _atom_site_symmetry_multiplicity
 _atom_site_fract_x
 _atom_site_fract_y
 _atom_site_fract_z
 _atom_site_fract_occupancy
 Bi  Bi1  1  0.25000  0.48929  0.59905  1
 Bi  Bi2  1  0.75000  0.98929  0.90095  1
 Bi  Bi3  1  0.75000  0.51071  0.40095  1
 Bi  Bi4  1  0.25000  0.01071  0.09905  1
 Mg  Mg1  1  0.75000  0.68937  0.09911  1
 Mg  Mg2  1  0.25000  0.18937  0.40089  1
 Mg  Mg3  1  0.75000  0.81063  0.59911  1
 Mg  Mg4  1  0.25000  0.79700  0.40677  1
 Mg  Mg5  1  0.25000  0.31063  0.90089  1
 Mg  Mg6  1  0.75000  0.20300  0.59323  1
 Mg  Mg7  1  0.75000  0.29700  0.09323  1
 Mg  Mg8  1  0.25000  0.70300  0.90677  1
 O  O1  1  0.75000  0.12141  0.21351  1
 O  O2  1  0.00717  0.00676  0.62504  1
 O  O3  1  0.25000  0.62141  0.28649  1
 O  O4  1  0.25000  0.30119  0.25265  1
 O  O5  1  0.75000  0.80119  0.24735  1
 O  O6  1  0.49810  0.32583  0.49417  1
 O  O7  1  0.99283  0.50676  0.87496  1
 O  O8  1  0.50717  0.50676  0.87496  1
 O  O9  1  0.00190  0.32583  0.49417  1
 O  O10  1  0.50190  0.67417  0.50583  1
 O  O11  1  0.99810  0.82583  0.00583  1
 O  O12  1  0.25000  0.87859  0.78649  1
 O  O13  1  0.99810  0.67417  0.50583  1
 O  O14  1  0.49810  0.17417  0.99417  1
 O  O15  1  0.00190  0.17417  0.99417  1
 O  O16  1  0.50717  0.99324  0.37496  1
 O  O17  1  0.25000  0.19881  0.75265  1
 O  O18  1  0.75000  0.69881  0.74735  1
 O  O19  1  0.49283  0.49324  0.12504  1
 O  O20  1  0.49283  0.00676  0.62504  1
 O  O21  1  0.99283  0.99324  0.37496  1
 O  O22  1  0.75000  0.37859  0.71351  1
 O  O23  1  0.00717  0.49324  0.12504  1
 O  O24  1  0.50190  0.82583  0.00583  1
 P  P1  1  0.75000  0.52085  0.80174  1
 P  P2  1  0.25000  0.02085  0.69826  1
 P  P3  1  0.25000  0.47915  0.19826  1
 P  P4  1  0.75000  0.97915  0.30174  1
