CIF file written using JARVIS-Tools package.
data_RbCa2Nb3O10
_symmetry_space_group_name_H-M  'P4/mmm'
_cell_length_a       3.95643
_cell_length_b       3.95643
_cell_length_c       15.1624
_cell_angle_alpha    90
_cell_angle_beta     90
_cell_angle_gamma    90

_symmetry_Int_Tables_number  123
_chemical_formula_structural  RbCa2Nb3O10
_chemical_formula_sum  RbCa2Nb3O0
_cell_volume  237.34172164485327
_cell_formula_units_Z  1
loop_
  _symmetry_equiv_pos_site_id
 _symmetry_equiv_pos_as_xyz
 1  'x, y, z'
loop_
 _atom_site_type_symbol
 _atom_site_label
 _atom_site_symmetry_multiplicity
 _atom_site_fract_x
 _atom_site_fract_y
 _atom_site_fract_z
 _atom_site_fract_occupancy
 Ca  Ca1  1  0.50000  0.50000  0.84983  1
 Ca  Ca2  1  0.50000  0.50000  0.15017  1
 Nb  Nb1  1  0.00000  0.00000  0.00000  1
 Nb  Nb2  1  0.00000  0.00000  0.28273  1
 Nb  Nb3  1  0.00000  0.00000  0.71727  1
 O  O1  1  0.00000  0.00000  0.59814  1
 O  O2  1  0.00000  0.00000  0.40186  1
 O  O3  1  0.50000  0.00000  0.74634  1
 O  O4  1  0.00000  0.50000  0.74634  1
 O  O5  1  0.50000  0.00000  0.25366  1
 O  O6  1  0.00000  0.50000  0.25366  1
 O  O7  1  0.00000  0.50000  0.00000  1
 O  O8  1  0.50000  0.00000  0.00000  1
 O  O9  1  0.00000  0.00000  0.13042  1
 O  O10  1  0.00000  0.00000  0.86958  1
 Rb  Rb1  1  0.50000  0.50000  0.50000  1
