CIF file written using JARVIS-Tools package.
data_Rh3Se8
_symmetry_space_group_name_H-M  'R-3'
_cell_length_a       6.04874
_cell_length_b       6.04874
_cell_length_c       6.04875
_cell_angle_alpha    90.7372
_cell_angle_beta     90.7372
_cell_angle_gamma    90.7372

_symmetry_Int_Tables_number  148
_chemical_formula_structural  Rh3Se8
_chemical_formula_sum  Rh3Se8
_cell_volume  221.25209294068307
_cell_formula_units_Z  1
loop_
  _symmetry_equiv_pos_site_id
 _symmetry_equiv_pos_as_xyz
 1  'x, y, z'
loop_
 _atom_site_type_symbol
 _atom_site_label
 _atom_site_symmetry_multiplicity
 _atom_site_fract_x
 _atom_site_fract_y
 _atom_site_fract_z
 _atom_site_fract_occupancy
 Rh  Rh1  1  0.50000  0.00000  0.50000  1
 Rh  Rh2  1  -0.00000  0.50000  0.50000  1
 Rh  Rh3  1  0.50000  0.50000  0.00000  1
 Se  Se1  1  0.88152  0.38175  0.11299  1
 Se  Se2  1  0.38175  0.11299  0.88152  1
 Se  Se3  1  0.11299  0.88152  0.38175  1
 Se  Se4  1  0.37806  0.37806  0.37806  1
 Se  Se5  1  0.62194  0.62194  0.62194  1
 Se  Se6  1  0.88701  0.11848  0.61825  1
 Se  Se7  1  0.61825  0.88701  0.11848  1
 Se  Se8  1  0.11848  0.61825  0.88701  1
