CIF file written using JARVIS-Tools package.
data_TiCdHg2
_symmetry_space_group_name_H-M  'P4/mmm'
_cell_length_a       4.4498
_cell_length_b       4.4498
_cell_length_c       4.11049
_cell_angle_alpha    90
_cell_angle_beta     90
_cell_angle_gamma    90

_symmetry_Int_Tables_number  123
_chemical_formula_structural  TiCdHg2
_chemical_formula_sum  TiCdHg2
_cell_volume  81.39063203609258
_cell_formula_units_Z  1
loop_
  _symmetry_equiv_pos_site_id
 _symmetry_equiv_pos_as_xyz
 1  'x, y, z'
loop_
 _atom_site_type_symbol
 _atom_site_label
 _atom_site_symmetry_multiplicity
 _atom_site_fract_x
 _atom_site_fract_y
 _atom_site_fract_z
 _atom_site_fract_occupancy
 Cd  Cd1  1  0.00000  0.00000  0.00000  1
 Hg  Hg1  1  0.50000  0.00000  0.50000  1
 Hg  Hg2  1  0.00000  0.50000  0.50000  1
 Ti  Ti1  1  0.50000  0.50000  0.00000  1
