CIF file written using JARVIS-Tools package.
data_TlBiP2S7
_symmetry_space_group_name_H-M  'P2_1/c'
_cell_length_a       9.15228
_cell_length_b       12.3675
_cell_length_c       9.57151
_cell_angle_alpha    90
_cell_angle_beta     90.371
_cell_angle_gamma    90

_symmetry_Int_Tables_number  14
_chemical_formula_structural  TlBiP2S7
_chemical_formula_sum  Tl4Bi4P8S28
_cell_volume  1083.388670252869
_cell_formula_units_Z  4
loop_
  _symmetry_equiv_pos_site_id
 _symmetry_equiv_pos_as_xyz
 1  'x, y, z'
loop_
 _atom_site_type_symbol
 _atom_site_label
 _atom_site_symmetry_multiplicity
 _atom_site_fract_x
 _atom_site_fract_y
 _atom_site_fract_z
 _atom_site_fract_occupancy
 Bi  Bi1  1  0.11634  0.36126  0.34272  1
 Bi  Bi2  1  0.88366  0.63874  0.65728  1
 Bi  Bi3  1  0.61634  0.13874  0.34272  1
 Bi  Bi4  1  0.38366  0.86126  0.65728  1
 P  P1  1  0.97861  0.10248  0.21947  1
 P  P2  1  0.79830  0.53799  0.31873  1
 P  P3  1  0.52139  0.60248  0.78053  1
 P  P4  1  0.70170  0.03799  0.68127  1
 P  P5  1  0.29830  0.96201  0.31873  1
 P  P6  1  0.47861  0.39752  0.21947  1
 P  P7  1  0.02139  0.89752  0.78053  1
 P  P8  1  0.20170  0.46201  0.68127  1
 S  S1  1  0.92292  0.47218  0.16282  1
 S  S2  1  0.81306  0.44406  0.49384  1
 S  S3  1  0.57614  0.55377  0.24850  1
 S  S4  1  0.92386  0.05377  0.75150  1
 S  S5  1  0.85121  0.69583  0.34949  1
 S  S6  1  0.20702  0.94599  0.88112  1
 S  S7  1  0.42386  0.44623  0.75150  1
 S  S8  1  0.57708  0.97218  0.83718  1
 S  S9  1  0.79298  0.05401  0.11888  1
 S  S10  1  0.88757  0.79360  0.88435  1
 S  S11  1  0.07708  0.52782  0.83718  1
 S  S12  1  0.64879  0.19583  0.65051  1
 S  S13  1  0.57290  0.67251  0.59376  1
 S  S14  1  0.68694  0.94406  0.50616  1
 S  S15  1  0.14879  0.30417  0.65051  1
 S  S16  1  0.92710  0.17251  0.40624  1
 S  S17  1  0.38757  0.70640  0.88435  1
 S  S18  1  0.29298  0.44599  0.11888  1
 S  S19  1  0.70702  0.55401  0.88112  1
 S  S20  1  0.18694  0.55594  0.50616  1
 S  S21  1  0.42292  0.02782  0.16282  1
 S  S22  1  0.31306  0.05594  0.49384  1
 S  S23  1  0.11243  0.20640  0.11565  1
 S  S24  1  0.35121  0.80417  0.34949  1
 S  S25  1  0.07614  0.94623  0.24850  1
 S  S26  1  0.61243  0.29360  0.11565  1
 S  S27  1  0.07290  0.82749  0.59376  1
 S  S28  1  0.42710  0.32749  0.40624  1
 Tl  Tl1  1  0.37832  0.18934  0.88186  1
 Tl  Tl2  1  0.12168  0.68934  0.11814  1
 Tl  Tl3  1  0.62168  0.81066  0.11814  1
 Tl  Tl4  1  0.87832  0.31066  0.88186  1
