CIF file written using JARVIS-Tools package.
data_ZrNbP
_symmetry_space_group_name_H-M  'Pnma'
_cell_length_a       3.59316
_cell_length_b       6.92457
_cell_length_c       8.36966
_cell_angle_alpha    90
_cell_angle_beta     90
_cell_angle_gamma    90

_symmetry_Int_Tables_number  62
_chemical_formula_structural  ZrNbP
_chemical_formula_sum  Zr4Nb4P4
_cell_volume  208.24635637922444
_cell_formula_units_Z  4
loop_
  _symmetry_equiv_pos_site_id
 _symmetry_equiv_pos_as_xyz
 1  'x, y, z'
loop_
 _atom_site_type_symbol
 _atom_site_label
 _atom_site_symmetry_multiplicity
 _atom_site_fract_x
 _atom_site_fract_y
 _atom_site_fract_z
 _atom_site_fract_occupancy
 Nb  Nb1  1  0.25000  0.63847  0.44065  1
 Nb  Nb2  1  0.75000  0.36153  0.55935  1
 Nb  Nb3  1  0.25000  0.13847  0.05935  1
 Nb  Nb4  1  0.75000  0.86153  0.94065  1
 P  P1  1  0.75000  0.24118  0.85730  1
 P  P2  1  0.25000  0.25882  0.35730  1
 P  P3  1  0.75000  0.74118  0.64270  1
 P  P4  1  0.25000  0.75882  0.14270  1
 Zr  Zr1  1  0.25000  0.03650  0.66854  1
 Zr  Zr2  1  0.75000  0.46350  0.16854  1
 Zr  Zr3  1  0.25000  0.53650  0.83146  1
 Zr  Zr4  1  0.75000  0.96350  0.33146  1
