CIF file written using JARVIS-Tools package.
data_LiB
_symmetry_space_group_name_H-M  'Pnma'
_cell_length_a       3.06685
_cell_length_b       5.65457
_cell_length_c       6.12316
_cell_angle_alpha    90
_cell_angle_beta     90
_cell_angle_gamma    90

_symmetry_Int_Tables_number  62
_chemical_formula_structural  LiB
_chemical_formula_sum  Li4B4
_cell_volume  106.1862700471945
_cell_formula_units_Z  4
loop_
  _symmetry_equiv_pos_site_id
 _symmetry_equiv_pos_as_xyz
 1  'x, y, z'
loop_
 _atom_site_type_symbol
 _atom_site_label
 _atom_site_symmetry_multiplicity
 _atom_site_fract_x
 _atom_site_fract_y
 _atom_site_fract_z
 _atom_site_fract_occupancy
 B  B1  1  0.25000  0.52701  0.49996  1
 B  B2  1  0.75000  0.47299  0.50004  1
 B  B3  1  0.75000  0.02701  0.00004  1
 B  B4  1  0.25000  0.97299  0.99996  1
 Li  Li1  1  0.25000  0.24943  0.25050  1
 Li  Li2  1  0.75000  0.75057  0.74950  1
 Li  Li3  1  0.75000  0.74943  0.24950  1
 Li  Li4  1  0.25000  0.25057  0.75050  1
