CIF file written using JARVIS-Tools package.
data_DyCd3
_symmetry_space_group_name_H-M  'Cmcm'
_cell_length_a       4.87594
_cell_length_b       6.50461
_cell_length_c       6.50461
_cell_angle_alpha    115.01
_cell_angle_beta     90
_cell_angle_gamma    90

_symmetry_Int_Tables_number  63
_chemical_formula_structural  DyCd3
_chemical_formula_sum  Dy2Cd6
_cell_volume  186.9564912186722
_cell_formula_units_Z  2
loop_
  _symmetry_equiv_pos_site_id
 _symmetry_equiv_pos_as_xyz
 1  'x, y, z'
loop_
 _atom_site_type_symbol
 _atom_site_label
 _atom_site_symmetry_multiplicity
 _atom_site_fract_x
 _atom_site_fract_y
 _atom_site_fract_z
 _atom_site_fract_occupancy
 Cd  Cd1  1  0.75000  0.82566  0.17434  1
 Cd  Cd2  1  0.25000  0.17434  0.82566  1
 Cd  Cd3  1  0.75000  0.31301  0.12874  1
 Cd  Cd4  1  0.25000  0.68699  0.87126  1
 Cd  Cd5  1  0.25000  0.12874  0.31301  1
 Cd  Cd6  1  0.75000  0.87126  0.68699  1
 Dy  Dy1  1  0.75000  0.35948  0.64052  1
 Dy  Dy2  1  0.25000  0.64052  0.35948  1
