CIF file written using JARVIS-Tools package.
data_AsSCl3F6
_symmetry_space_group_name_H-M  'P2_12_12_1'
_cell_length_a       7.70504
_cell_length_b       8.51296
_cell_length_c       12.0612
_cell_angle_alpha    90
_cell_angle_beta     90
_cell_angle_gamma    90

_symmetry_Int_Tables_number  19
_chemical_formula_structural  AsSCl3F6
_chemical_formula_sum  As4S4Cl2F24
_cell_volume  791.1243550086202
_cell_formula_units_Z  4
loop_
  _symmetry_equiv_pos_site_id
 _symmetry_equiv_pos_as_xyz
 1  'x, y, z'
loop_
 _atom_site_type_symbol
 _atom_site_label
 _atom_site_symmetry_multiplicity
 _atom_site_fract_x
 _atom_site_fract_y
 _atom_site_fract_z
 _atom_site_fract_occupancy
 As  As1  1  0.30197  0.53221  0.68460  1
 As  As2  1  0.69803  0.03221  0.81540  1
 As  As3  1  0.80197  0.96779  0.31540  1
 As  As4  1  0.19803  0.46779  0.18460  1
 Cl  Cl1  1  0.71375  0.32569  0.09418  1
 Cl  Cl2  1  0.15637  0.81674  0.94422  1
 Cl  Cl3  1  0.84363  0.31674  0.55578  1
 Cl  Cl4  1  0.13461  0.99211  0.62002  1
 Cl  Cl5  1  0.36539  0.00789  0.12002  1
 Cl  Cl6  1  0.28625  0.82569  0.40582  1
 Cl  Cl7  1  0.63461  0.50789  0.37998  1
 Cl  Cl8  1  0.78625  0.67431  0.59418  1
 Cl  Cl9  1  0.86539  0.49211  0.87998  1
 Cl  Cl10  1  0.34363  0.18326  0.44422  1
 Cl  Cl11  1  0.21375  0.17431  0.90582  1
 Cl  Cl12  1  0.65637  0.68326  0.05578  1
 F  F1  1  0.79850  0.85100  0.78056  1
 F  F2  1  0.59741  0.04123  0.68358  1
 F  F3  1  0.89943  0.78479  0.35117  1
 F  F4  1  0.38022  0.36617  0.24021  1
 F  F5  1  0.61978  0.86617  0.25979  1
 F  F6  1  0.51833  0.93064  0.87064  1
 F  F7  1  0.19710  0.52771  0.55287  1
 F  F8  1  0.98167  0.06936  0.37064  1
 F  F9  1  0.20150  0.35100  0.71944  1
 F  F10  1  0.30290  0.47229  0.05287  1
 F  F11  1  0.80290  0.02771  0.94713  1
 F  F12  1  0.11978  0.63383  0.74021  1
 F  F13  1  0.60057  0.21521  0.85117  1
 F  F14  1  0.88022  0.13383  0.75979  1
 F  F15  1  0.01833  0.56936  0.12936  1
 F  F16  1  0.69710  0.97229  0.44713  1
 F  F17  1  0.48167  0.43064  0.62936  1
 F  F18  1  0.29850  0.64900  0.21944  1
 F  F19  1  0.40259  0.54123  0.81642  1
 F  F20  1  0.90259  0.95877  0.18358  1
 F  F21  1  0.39943  0.71521  0.64883  1
 F  F22  1  0.70150  0.14900  0.28056  1
 F  F23  1  0.09741  0.45877  0.31642  1
 F  F24  1  0.10057  0.28479  0.14883  1
 S  S1  1  0.65179  0.47803  0.97543  1
 S  S2  1  0.84821  0.52197  0.47543  1
 S  S3  1  0.34821  0.97803  0.52457  1
 S  S4  1  0.15179  0.02197  0.02457  1
