CIF file written using JARVIS-Tools package.
data_Sr2InF7
_symmetry_space_group_name_H-M  'P2_1/c'
_cell_length_a       5.49057
_cell_length_b       12.3804
_cell_length_c       8.3585
_cell_angle_alpha    90
_cell_angle_beta     90.6348
_cell_angle_gamma    90

_symmetry_Int_Tables_number  14
_chemical_formula_structural  Sr2InF7
_chemical_formula_sum  Sr8In4F28
_cell_volume  568.1360800682712
_cell_formula_units_Z  4
loop_
  _symmetry_equiv_pos_site_id
 _symmetry_equiv_pos_as_xyz
 1  'x, y, z'
loop_
 _atom_site_type_symbol
 _atom_site_label
 _atom_site_symmetry_multiplicity
 _atom_site_fract_x
 _atom_site_fract_y
 _atom_site_fract_z
 _atom_site_fract_occupancy
 F  F1  1  0.98692  0.60408  0.91103  1
 F  F2  1  0.50417  0.60394  0.92601  1
 F  F3  1  0.01308  0.39592  0.08897  1
 F  F4  1  0.50417  0.89606  0.42601  1
 F  F5  1  0.36410  0.92755  0.12467  1
 F  F6  1  0.49591  0.27129  0.79885  1
 F  F7  1  0.50409  0.77129  0.70115  1
 F  F8  1  0.50409  0.72871  0.20115  1
 F  F9  1  0.79828  0.04318  0.21338  1
 F  F10  1  0.49591  0.22871  0.29885  1
 F  F11  1  0.63590  0.42755  0.37533  1
 F  F12  1  0.63590  0.07245  0.87533  1
 F  F13  1  0.36410  0.57245  0.62467  1
 F  F14  1  0.79120  0.64180  0.46335  1
 F  F15  1  0.20880  0.14180  0.03665  1
 F  F16  1  0.20880  0.35820  0.53665  1
 F  F17  1  0.79120  0.85820  0.96335  1
 F  F18  1  0.20172  0.95682  0.78662  1
 F  F19  1  0.01308  0.10408  0.58897  1
 F  F20  1  0.79828  0.45682  0.71338  1
 F  F21  1  0.98692  0.89592  0.41103  1
 F  F22  1  0.20172  0.54318  0.28662  1
 F  F23  1  0.01171  0.25527  0.80724  1
 F  F24  1  0.98829  0.74473  0.19276  1
 F  F25  1  0.01171  0.24473  0.30724  1
 F  F26  1  0.49583  0.10394  0.57399  1
 F  F27  1  0.98829  0.75527  0.69276  1
 F  F28  1  0.49583  0.39606  0.07399  1
 In  In1  1  0.27997  0.12455  0.78823  1
 In  In2  1  0.72003  0.62455  0.71177  1
 In  In3  1  0.72003  0.87545  0.21177  1
 In  In4  1  0.27997  0.37545  0.28823  1
 Sr  Sr1  1  0.23663  0.43766  0.82498  1
 Sr  Sr2  1  0.76337  0.93766  0.67502  1
 Sr  Sr3  1  0.76337  0.56234  0.17502  1
 Sr  Sr4  1  0.23663  0.06234  0.32498  1
 Sr  Sr5  1  0.76368  0.22150  0.05466  1
 Sr  Sr6  1  0.23632  0.72150  0.44534  1
 Sr  Sr7  1  0.23632  0.77850  0.94534  1
 Sr  Sr8  1  0.76368  0.27850  0.55466  1
