CIF file written using JARVIS-Tools package.
data_Ta2Be
_symmetry_space_group_name_H-M  'I4/mcm'
_cell_length_a       4.85538
_cell_length_b       4.91993
_cell_length_c       4.91994
_cell_angle_alpha    75.9078
_cell_angle_beta     60.4331
_cell_angle_gamma    60.4331

_symmetry_Int_Tables_number  140
_chemical_formula_structural  Ta2Be
_chemical_formula_sum  Ta4Be2
_cell_volume  88.91216938031687
_cell_formula_units_Z  2
loop_
  _symmetry_equiv_pos_site_id
 _symmetry_equiv_pos_as_xyz
 1  'x, y, z'
loop_
 _atom_site_type_symbol
 _atom_site_label
 _atom_site_symmetry_multiplicity
 _atom_site_fract_x
 _atom_site_fract_y
 _atom_site_fract_z
 _atom_site_fract_occupancy
 Be  Be1  1  0.25000  0.00000  0.00000  1
 Be  Be2  1  0.75000  0.00000  -0.00000  1
 Ta  Ta1  1  0.16077  0.50000  0.17846  1
 Ta  Ta2  1  0.33923  0.82154  0.50000  1
 Ta  Ta3  1  0.66077  0.17846  0.50000  1
 Ta  Ta4  1  0.83923  0.50000  0.82154  1
