CIF file written using JARVIS-Tools package.
data_K2HfF6
_symmetry_space_group_name_H-M  'C2/c'
_cell_length_a       6.56867
_cell_length_b       6.5792
_cell_length_c       6.88475
_cell_angle_alpha    89.5567
_cell_angle_beta     89.1119
_cell_angle_gamma    60.0529

_symmetry_Int_Tables_number  15
_chemical_formula_structural  K2HfF6
_chemical_formula_sum  K4Hf2F2
_cell_volume  257.7790740764701
_cell_formula_units_Z  2
loop_
  _symmetry_equiv_pos_site_id
 _symmetry_equiv_pos_as_xyz
 1  'x, y, z'
loop_
 _atom_site_type_symbol
 _atom_site_label
 _atom_site_symmetry_multiplicity
 _atom_site_fract_x
 _atom_site_fract_y
 _atom_site_fract_z
 _atom_site_fract_occupancy
 F  F1  1  0.72198  0.97471  0.72341  1
 F  F2  1  0.87066  0.19885  0.45387  1
 F  F3  1  0.06951  0.80115  0.95387  1
 F  F4  1  0.12934  0.80115  0.54613  1
 F  F5  1  0.61409  0.39061  0.77392  1
 F  F6  1  0.99530  0.39061  0.72608  1
 F  F7  1  0.69669  0.02529  0.22341  1
 F  F8  1  0.93049  0.19885  0.04613  1
 F  F9  1  0.30331  0.97471  0.77659  1
 F  F10  1  0.00470  0.60939  0.27392  1
 F  F11  1  0.38591  0.60939  0.22608  1
 F  F12  1  0.27802  0.02529  0.27659  1
 Hf  Hf1  1  0.04920  0.90159  0.25000  1
 Hf  Hf2  1  0.95080  0.09841  0.75000  1
 K  K1  1  0.32536  0.31195  0.00136  1
 K  K2  1  0.36269  0.31195  0.49864  1
 K  K3  1  0.63731  0.68805  0.50136  1
 K  K4  1  0.67464  0.68805  0.99864  1
