CIF file written using JARVIS-Tools package.
data_Y3B7W
_symmetry_space_group_name_H-M  'Cmcm'
_cell_length_a       3.48219
_cell_length_b       8.17926
_cell_length_c       9.48628
_cell_angle_alpha    90
_cell_angle_beta     90
_cell_angle_gamma    102.29

_symmetry_Int_Tables_number  63
_chemical_formula_structural  Y3B7W
_chemical_formula_sum  Y6B4W2
_cell_volume  263.99321324722973
_cell_formula_units_Z  2
loop_
  _symmetry_equiv_pos_site_id
 _symmetry_equiv_pos_as_xyz
 1  'x, y, z'
loop_
 _atom_site_type_symbol
 _atom_site_label
 _atom_site_symmetry_multiplicity
 _atom_site_fract_x
 _atom_site_fract_y
 _atom_site_fract_z
 _atom_site_fract_occupancy
 B  B1  1  0.72732  0.45463  0.46658  1
 B  B2  1  0.54391  0.08781  0.75000  1
 B  B3  1  0.48026  0.96052  0.90798  1
 B  B4  1  0.51974  0.03948  0.09202  1
 B  B5  1  0.51974  0.03948  0.40798  1
 B  B6  1  0.48026  0.96052  0.59202  1
 B  B7  1  0.45609  0.91219  0.25000  1
 B  B8  1  0.63479  0.26958  0.35298  1
 B  B9  1  0.36521  0.73042  0.64702  1
 B  B10  1  0.27268  0.54537  0.53342  1
 B  B11  1  0.36521  0.73042  0.85298  1
 B  B12  1  0.72732  0.45463  0.03342  1
 B  B13  1  0.27268  0.54537  0.96658  1
 B  B14  1  0.63479  0.26958  0.14702  1
 W  W1  1  0.05371  0.10742  0.25000  1
 W  W2  1  0.94629  0.89258  0.75000  1
 Y  Y1  1  0.10673  0.21345  0.93950  1
 Y  Y2  1  0.89327  0.78655  0.06050  1
 Y  Y3  1  0.24428  0.48856  0.25000  1
 Y  Y4  1  0.75572  0.51144  0.75000  1
 Y  Y5  1  0.10673  0.21345  0.56050  1
 Y  Y6  1  0.89327  0.78655  0.43950  1
