CIF file written using JARVIS-Tools package.
data_KZrF5
_symmetry_space_group_name_H-M  'P-1'
_cell_length_a       7.39114
_cell_length_b       8.48207
_cell_length_c       10.7058
_cell_angle_alpha    75.8919
_cell_angle_beta     72.259
_cell_angle_gamma    66.6733

_symmetry_Int_Tables_number  2
_chemical_formula_structural  KZrF5
_chemical_formula_sum  K6Zr6F30
_cell_volume  581.1558253457347
_cell_formula_units_Z  6
loop_
  _symmetry_equiv_pos_site_id
 _symmetry_equiv_pos_as_xyz
 1  'x, y, z'
loop_
 _atom_site_type_symbol
 _atom_site_label
 _atom_site_symmetry_multiplicity
 _atom_site_fract_x
 _atom_site_fract_y
 _atom_site_fract_z
 _atom_site_fract_occupancy
 F  F1  1  0.31486  0.44211  0.72012  1
 F  F2  1  0.40726  0.44316  0.46046  1
 F  F3  1  0.99040  0.88852  0.61107  1
 F  F4  1  0.34686  0.16627  0.29037  1
 F  F5  1  0.57806  0.23702  0.86066  1
 F  F6  1  0.61213  0.88780  0.19910  1
 F  F7  1  0.06250  0.99685  0.17221  1
 F  F8  1  0.98754  0.59683  0.89570  1
 F  F9  1  0.69013  0.24840  0.29327  1
 F  F10  1  0.30987  0.75160  0.70673  1
 F  F11  1  0.66473  0.50202  0.03020  1
 F  F12  1  0.00960  0.11148  0.38893  1
 F  F13  1  0.38787  0.11220  0.80090  1
 F  F14  1  0.03196  0.57503  0.59711  1
 F  F15  1  0.82239  0.24033  0.62434  1
 F  F16  1  0.33380  0.12998  0.06232  1
 F  F17  1  0.98106  0.72430  0.11233  1
 F  F18  1  0.62720  0.12907  0.55329  1
 F  F19  1  0.93750  0.00315  0.82779  1
 F  F20  1  0.96804  0.42497  0.40289  1
 F  F21  1  0.37280  0.87093  0.44671  1
 F  F22  1  0.42194  0.76298  0.13934  1
 F  F23  1  0.33527  0.49798  0.96980  1
 F  F24  1  0.68514  0.55789  0.27988  1
 F  F25  1  0.65314  0.83373  0.70963  1
 F  F26  1  0.17761  0.75967  0.37566  1
 F  F27  1  0.01246  0.40317  0.10430  1
 F  F28  1  0.01894  0.27570  0.88767  1
 F  F29  1  0.66620  0.87002  0.93768  1
 F  F30  1  0.59274  0.55684  0.53954  1
 K  K1  1  0.74569  0.15261  0.06980  1
 K  K2  1  0.22386  0.18325  0.57489  1
 K  K3  1  0.77614  0.81675  0.42511  1
 K  K4  1  0.25431  0.84739  0.93020  1
 K  K5  1  0.28541  0.49432  0.22942  1
 K  K6  1  0.71459  0.50568  0.77058  1
 Zr  Zr1  1  0.23406  0.34037  0.91870  1
 Zr  Zr2  1  0.28217  0.97337  0.25622  1
 Zr  Zr3  1  0.74198  0.33458  0.43105  1
 Zr  Zr4  1  0.76594  0.65963  0.08130  1
 Zr  Zr5  1  0.71783  0.02663  0.74378  1
 Zr  Zr6  1  0.25802  0.66542  0.56895  1
