CIF file written using JARVIS-Tools package.
data_CaTi8S16
_symmetry_space_group_name_H-M  'P-3m1'
_cell_length_a       6.84443
_cell_length_b       6.84443
_cell_length_c       12.5195
_cell_angle_alpha    90
_cell_angle_beta     90
_cell_angle_gamma    120

_symmetry_Int_Tables_number  164
_chemical_formula_structural  CaTi8S16
_chemical_formula_sum  CaTi8S6
_cell_volume  507.91654636144847
_cell_formula_units_Z  1
loop_
  _symmetry_equiv_pos_site_id
 _symmetry_equiv_pos_as_xyz
 1  'x, y, z'
loop_
 _atom_site_type_symbol
 _atom_site_label
 _atom_site_symmetry_multiplicity
 _atom_site_fract_x
 _atom_site_fract_y
 _atom_site_fract_z
 _atom_site_fract_occupancy
 Ca  Ca1  1  0.00000  0.00000  0.50000  1
 S  S1  1  0.83274  0.16726  0.34356  1
 S  S2  1  0.83268  0.16732  0.88564  1
 S  S3  1  0.83274  0.66548  0.34356  1
 S  S4  1  0.16726  0.83274  0.65644  1
 S  S5  1  0.33333  0.66667  0.34464  1
 S  S6  1  0.33333  0.66667  0.88200  1
 S  S7  1  0.83268  0.66537  0.88564  1
 S  S8  1  0.33463  0.16732  0.88564  1
 S  S9  1  0.66548  0.83274  0.65644  1
 S  S10  1  0.66537  0.83268  0.11436  1
 S  S11  1  0.33452  0.16726  0.34356  1
 S  S12  1  0.66667  0.33333  0.65536  1
 S  S13  1  0.16726  0.33452  0.65644  1
 S  S14  1  0.16732  0.33463  0.11436  1
 S  S15  1  0.66667  0.33333  0.11800  1
 S  S16  1  0.16732  0.83268  0.11436  1
 Ti  Ti1  1  0.00000  0.00000  0.22246  1
 Ti  Ti2  1  0.00000  0.00000  0.77754  1
 Ti  Ti3  1  0.00434  0.50217  0.22786  1
 Ti  Ti4  1  0.99566  0.49783  0.77214  1
 Ti  Ti5  1  0.49783  0.50217  0.22786  1
 Ti  Ti6  1  0.50217  0.49783  0.77214  1
 Ti  Ti7  1  0.49783  0.99566  0.22786  1
 Ti  Ti8  1  0.50217  0.00434  0.77214  1
