CIF file written using JARVIS-Tools package.
data_BaZn2Sb2
_symmetry_space_group_name_H-M  'Pnma'
_cell_length_a       4.55482
_cell_length_b       10.6334
_cell_length_c       11.7475
_cell_angle_alpha    90
_cell_angle_beta     90
_cell_angle_gamma    90

_symmetry_Int_Tables_number  62
_chemical_formula_structural  BaZn2Sb2
_chemical_formula_sum  Ba4Zn8Sb8
_cell_volume  568.9696478071514
_cell_formula_units_Z  4
loop_
  _symmetry_equiv_pos_site_id
 _symmetry_equiv_pos_as_xyz
 1  'x, y, z'
loop_
 _atom_site_type_symbol
 _atom_site_label
 _atom_site_symmetry_multiplicity
 _atom_site_fract_x
 _atom_site_fract_y
 _atom_site_fract_z
 _atom_site_fract_occupancy
 Ba  Ba1  1  0.25000  0.74697  0.31984  1
 Ba  Ba2  1  0.75000  0.25303  0.68016  1
 Ba  Ba3  1  0.25000  0.24697  0.18016  1
 Ba  Ba4  1  0.75000  0.75303  0.81984  1
 Sb  Sb1  1  0.75000  0.52601  0.16301  1
 Sb  Sb2  1  0.75000  0.15044  0.96610  1
 Sb  Sb3  1  0.25000  0.84956  0.03390  1
 Sb  Sb4  1  0.25000  0.34956  0.46610  1
 Sb  Sb5  1  0.75000  0.65044  0.53390  1
 Sb  Sb6  1  0.75000  0.02601  0.33699  1
 Sb  Sb7  1  0.25000  0.97399  0.66301  1
 Sb  Sb8  1  0.25000  0.47399  0.83699  1
 Zn  Zn1  1  0.75000  0.90338  0.54764  1
 Zn  Zn2  1  0.25000  0.09662  0.45236  1
 Zn  Zn3  1  0.25000  0.05679  0.87933  1
 Zn  Zn4  1  0.75000  0.94321  0.12067  1
 Zn  Zn5  1  0.75000  0.44321  0.37933  1
 Zn  Zn6  1  0.25000  0.55679  0.62067  1
 Zn  Zn7  1  0.75000  0.40338  0.95236  1
 Zn  Zn8  1  0.25000  0.59662  0.04764  1
