CIF file written using JARVIS-Tools package.
data_SnSe2O6
_symmetry_space_group_name_H-M  'Pa-3'
_cell_length_a       8.25645
_cell_length_b       8.25645
_cell_length_c       8.25645
_cell_angle_alpha    90
_cell_angle_beta     90
_cell_angle_gamma    90

_symmetry_Int_Tables_number  205
_chemical_formula_structural  SnSe2O6
_chemical_formula_sum  Sn4Se8O24
_cell_volume  562.8337509848598
_cell_formula_units_Z  4
loop_
  _symmetry_equiv_pos_site_id
 _symmetry_equiv_pos_as_xyz
 1  'x, y, z'
loop_
 _atom_site_type_symbol
 _atom_site_label
 _atom_site_symmetry_multiplicity
 _atom_site_fract_x
 _atom_site_fract_y
 _atom_site_fract_z
 _atom_site_fract_occupancy
 O  O1  1  0.97193  0.47077  0.25185  1
 O  O2  1  0.24815  0.02807  0.97077  1
 O  O3  1  0.02807  0.97077  0.24815  1
 O  O4  1  0.25185  0.52807  0.97077  1
 O  O5  1  0.52807  0.52923  0.75185  1
 O  O6  1  0.47193  0.02923  0.74815  1
 O  O7  1  0.52807  0.97077  0.25185  1
 O  O8  1  0.47193  0.47077  0.24815  1
 O  O9  1  0.52923  0.74815  0.02807  1
 O  O10  1  0.74815  0.02807  0.52923  1
 O  O11  1  0.25185  0.97193  0.47077  1
 O  O12  1  0.47077  0.25185  0.97193  1
 O  O13  1  0.02923  0.74815  0.47193  1
 O  O14  1  0.97077  0.24815  0.02807  1
 O  O15  1  0.24815  0.47193  0.47077  1
 O  O16  1  0.97193  0.02923  0.75185  1
 O  O17  1  0.75185  0.52807  0.52923  1
 O  O18  1  0.74815  0.47193  0.02923  1
 O  O19  1  0.02923  0.75185  0.97193  1
 O  O20  1  0.47077  0.24815  0.47193  1
 O  O21  1  0.52923  0.75185  0.52807  1
 O  O22  1  0.97077  0.25185  0.52807  1
 O  O23  1  0.02807  0.52923  0.74815  1
 O  O24  1  0.75185  0.97193  0.02923  1
 Se  Se1  1  0.66334  0.83666  0.16334  1
 Se  Se2  1  0.83666  0.33666  0.16334  1
 Se  Se3  1  0.33666  0.16334  0.83666  1
 Se  Se4  1  0.66334  0.66334  0.66334  1
 Se  Se5  1  0.16334  0.83666  0.33666  1
 Se  Se6  1  0.83666  0.16334  0.66334  1
 Se  Se7  1  0.16334  0.66334  0.83666  1
 Se  Se8  1  0.33666  0.33666  0.33666  1
 Sn  Sn1  1  0.00000  0.50000  0.50000  1
 Sn  Sn2  1  0.00000  0.00000  0.00000  1
 Sn  Sn3  1  0.50000  0.00000  0.50000  1
 Sn  Sn4  1  0.50000  0.50000  0.00000  1
