CIF file written using JARVIS-Tools package.
data_Ba3In2O6
_symmetry_space_group_name_H-M  'I4/mmm'
_cell_length_a       4.23944
_cell_length_b       4.23944
_cell_length_c       11.316
_cell_angle_alpha    100.796
_cell_angle_beta     100.796
_cell_angle_gamma    90

_symmetry_Int_Tables_number  139
_chemical_formula_structural  Ba3In2O6
_chemical_formula_sum  Ba3In2O6
_cell_volume  196.11534842957096
_cell_formula_units_Z  1
loop_
  _symmetry_equiv_pos_site_id
 _symmetry_equiv_pos_as_xyz
 1  'x, y, z'
loop_
 _atom_site_type_symbol
 _atom_site_label
 _atom_site_symmetry_multiplicity
 _atom_site_fract_x
 _atom_site_fract_y
 _atom_site_fract_z
 _atom_site_fract_occupancy
 Ba  Ba1  1  0.68276  0.68276  0.36553  1
 Ba  Ba2  1  0.31724  0.31724  0.63447  1
 Ba  Ba3  1  0.50000  0.50000  -0.00000  1
 In  In1  1  0.89796  0.89796  0.79593  1
 In  In2  1  0.10204  0.10204  0.20407  1
 O  O1  1  0.80172  0.80172  0.60344  1
 O  O2  1  0.19828  0.19828  0.39656  1
 O  O3  1  0.91623  0.41623  0.83246  1
 O  O4  1  0.41623  0.91623  0.83246  1
 O  O5  1  0.08377  0.58377  0.16754  1
 O  O6  1  0.58377  0.08377  0.16754  1
