CIF file written using JARVIS-Tools package.
data_Zr6CI12
_symmetry_space_group_name_H-M  'R-3'
_cell_length_a       9.09282
_cell_length_b       9.09281
_cell_length_c       9.09281
_cell_angle_alpha    107.201
_cell_angle_beta     107.201
_cell_angle_gamma    107.201

_symmetry_Int_Tables_number  148
_chemical_formula_structural  Zr6CI12
_chemical_formula_sum  Zr6CI2
_cell_volume  622.6316961710735
_cell_formula_units_Z  1
loop_
  _symmetry_equiv_pos_site_id
 _symmetry_equiv_pos_as_xyz
 1  'x, y, z'
loop_
 _atom_site_type_symbol
 _atom_site_label
 _atom_site_symmetry_multiplicity
 _atom_site_fract_x
 _atom_site_fract_y
 _atom_site_fract_z
 _atom_site_fract_occupancy
 C  C1  1  0.00000  0.00000  0.00000  1
 I  I1  1  0.77008  0.31124  0.92026  1
 I  I2  1  0.14767  0.45136  0.37611  1
 I  I3  1  0.37611  0.14767  0.45136  1
 I  I4  1  0.22992  0.68876  0.07974  1
 I  I5  1  0.85233  0.54864  0.62389  1
 I  I6  1  0.54864  0.62389  0.85233  1
 I  I7  1  0.45136  0.37611  0.14767  1
 I  I8  1  0.92026  0.77008  0.31124  1
 I  I9  1  0.68876  0.07974  0.22992  1
 I  I10  1  0.31124  0.92026  0.77008  1
 I  I11  1  0.07974  0.22992  0.68876  1
 I  I12  1  0.62389  0.85233  0.54864  1
 Zr  Zr1  1  0.27260  0.02804  0.08947  1
 Zr  Zr2  1  0.08947  0.27260  0.02804  1
 Zr  Zr3  1  0.02804  0.08947  0.27260  1
 Zr  Zr4  1  0.72740  0.97196  0.91053  1
 Zr  Zr5  1  0.91053  0.72740  0.97196  1
 Zr  Zr6  1  0.97196  0.91053  0.72740  1
