CIF file written using JARVIS-Tools package.
data_Ca3Ge3Mo2O12
_symmetry_space_group_name_H-M  'Ia-3d'
_cell_length_a       10.9216
_cell_length_b       10.9216
_cell_length_c       10.9216
_cell_angle_alpha    109.471
_cell_angle_beta     109.471
_cell_angle_gamma    109.471

_symmetry_Int_Tables_number  230
_chemical_formula_structural  Ca3Ge3Mo2O12
_chemical_formula_sum  Ca2Ge2Mo8O48
_cell_volume  1002.8454549673557
_cell_formula_units_Z  4
loop_
  _symmetry_equiv_pos_site_id
 _symmetry_equiv_pos_as_xyz
 1  'x, y, z'
loop_
 _atom_site_type_symbol
 _atom_site_label
 _atom_site_symmetry_multiplicity
 _atom_site_fract_x
 _atom_site_fract_y
 _atom_site_fract_z
 _atom_site_fract_occupancy
 Ca  Ca1  1  0.62500  0.25000  0.87500  1
 Ca  Ca2  1  0.62500  0.87500  0.75000  1
 Ca  Ca3  1  0.87500  0.75000  0.62500  1
 Ca  Ca4  1  0.75000  0.62500  0.87500  1
 Ca  Ca5  1  0.87500  0.62500  0.25000  1
 Ca  Ca6  1  0.25000  0.37500  0.12500  1
 Ca  Ca7  1  0.25000  0.87500  0.62500  1
 Ca  Ca8  1  0.12500  0.25000  0.37500  1
 Ca  Ca9  1  0.75000  0.12500  0.37500  1
 Ca  Ca10  1  0.12500  0.37500  0.75000  1
 Ca  Ca11  1  0.37500  0.12500  0.25000  1
 Ca  Ca12  1  0.37500  0.75000  0.12500  1
 Ge  Ge1  1  0.75000  0.87500  0.12500  1
 Ge  Ge2  1  0.37500  0.25000  0.62500  1
 Ge  Ge3  1  0.87500  0.12500  0.75000  1
 Ge  Ge4  1  0.25000  0.62500  0.37500  1
 Ge  Ge5  1  0.12500  0.75000  0.87500  1
 Ge  Ge6  1  0.12500  0.87500  0.25000  1
 Ge  Ge7  1  0.62500  0.37500  0.25000  1
 Ge  Ge8  1  0.25000  0.12500  0.87500  1
 Ge  Ge9  1  0.75000  0.37500  0.62500  1
 Ge  Ge10  1  0.37500  0.62500  0.75000  1
 Ge  Ge11  1  0.87500  0.25000  0.12500  1
 Ge  Ge12  1  0.62500  0.75000  0.37500  1
 Mo  Mo1  1  0.50000  0.00000  0.50000  1
 Mo  Mo2  1  0.50000  0.50000  0.50000  1
 Mo  Mo3  1  0.50000  0.50000  0.00000  1
 Mo  Mo4  1  -0.00000  0.50000  0.50000  1
 Mo  Mo5  1  0.50000  0.00000  0.00000  1
 Mo  Mo6  1  -0.00000  0.50000  0.00000  1
 Mo  Mo7  1  0.00000  0.00000  0.00000  1
 Mo  Mo8  1  0.00000  0.00000  0.50000  1
 O  O1  1  0.79033  0.41142  0.81110  1
 O  O2  1  0.08858  0.87891  0.39969  1
 O  O3  1  0.68890  0.10031  0.97923  1
 O  O4  1  0.70967  0.52077  0.62109  1
 O  O5  1  0.70967  0.68890  0.08858  1
 O  O6  1  0.52077  0.62109  0.70967  1
 O  O7  1  0.10031  0.62109  0.41142  1
 O  O8  1  0.12109  0.02077  0.20967  1
 O  O9  1  0.39969  0.81110  0.52077  1
 O  O10  1  0.87891  0.97923  0.79033  1
 O  O11  1  0.08858  0.70967  0.68890  1
 O  O12  1  0.81110  0.79033  0.41142  1
 O  O13  1  0.62109  0.41142  0.10031  1
 O  O14  1  0.52077  0.39969  0.81110  1
 O  O15  1  0.68890  0.08858  0.70967  1
 O  O16  1  0.41142  0.10031  0.62109  1
 O  O17  1  0.81110  0.52077  0.39969  1
 O  O18  1  0.39969  0.08858  0.87891  1
 O  O19  1  0.10031  0.97923  0.68890  1
 O  O20  1  0.60031  0.18890  0.47923  1
 O  O21  1  0.97923  0.68890  0.10031  1
 O  O22  1  0.97923  0.79033  0.87891  1
 O  O23  1  0.62109  0.70967  0.52077  1
 O  O24  1  0.20967  0.12109  0.02077  1
 O  O25  1  0.58858  0.18890  0.20967  1
 O  O26  1  0.91142  0.12109  0.60031  1
 O  O27  1  0.31110  0.89969  0.02077  1
 O  O28  1  0.29033  0.47923  0.37891  1
 O  O29  1  0.29033  0.31110  0.91142  1
 O  O30  1  0.47923  0.37891  0.29033  1
 O  O31  1  0.89969  0.37891  0.58858  1
 O  O32  1  0.37891  0.29033  0.47923  1
 O  O33  1  0.87891  0.39969  0.08858  1
 O  O34  1  0.12109  0.60031  0.91142  1
 O  O35  1  0.18890  0.20967  0.58858  1
 O  O36  1  0.02077  0.31110  0.89969  1
 O  O37  1  0.20967  0.58858  0.18890  1
 O  O38  1  0.89969  0.02077  0.31110  1
 O  O39  1  0.60031  0.91142  0.12109  1
 O  O40  1  0.18890  0.47923  0.60031  1
 O  O41  1  0.58858  0.89969  0.37891  1
 O  O42  1  0.31110  0.91142  0.29033  1
 O  O43  1  0.47923  0.60031  0.18890  1
 O  O44  1  0.37891  0.58858  0.89969  1
 O  O45  1  0.91142  0.29033  0.31110  1
 O  O46  1  0.02077  0.20967  0.12109  1
 O  O47  1  0.79033  0.87891  0.97923  1
 O  O48  1  0.41142  0.81110  0.79033  1
