CIF file written using JARVIS-Tools package.
data_Ca3Co2Ge3O12
_symmetry_space_group_name_H-M  'Ia-3d'
_cell_length_a       10.5842
_cell_length_b       10.5842
_cell_length_c       10.5842
_cell_angle_alpha    109.471
_cell_angle_beta     109.471
_cell_angle_gamma    109.471

_symmetry_Int_Tables_number  230
_chemical_formula_structural  Ca3Co2Ge3O12
_chemical_formula_sum  Ca2Co8Ge2O48
_cell_volume  912.7572472771009
_cell_formula_units_Z  4
loop_
  _symmetry_equiv_pos_site_id
 _symmetry_equiv_pos_as_xyz
 1  'x, y, z'
loop_
 _atom_site_type_symbol
 _atom_site_label
 _atom_site_symmetry_multiplicity
 _atom_site_fract_x
 _atom_site_fract_y
 _atom_site_fract_z
 _atom_site_fract_occupancy
 Ca  Ca1  1  0.62500  0.25000  0.87500  1
 Ca  Ca2  1  0.87500  0.75000  0.62500  1
 Ca  Ca3  1  0.75000  0.62500  0.87500  1
 Ca  Ca4  1  0.25000  0.87500  0.62500  1
 Ca  Ca5  1  0.87500  0.62500  0.25000  1
 Ca  Ca6  1  0.62500  0.87500  0.75000  1
 Ca  Ca7  1  0.37500  0.75000  0.12500  1
 Ca  Ca8  1  0.12500  0.25000  0.37500  1
 Ca  Ca9  1  0.25000  0.37500  0.12500  1
 Ca  Ca10  1  0.75000  0.12500  0.37500  1
 Ca  Ca11  1  0.12500  0.37500  0.75000  1
 Ca  Ca12  1  0.37500  0.12500  0.25000  1
 Co  Co1  1  0.00000  0.50000  0.50000  1
 Co  Co2  1  0.50000  0.50000  0.00000  1
 Co  Co3  1  0.50000  0.00000  0.50000  1
 Co  Co4  1  0.50000  0.50000  0.50000  1
 Co  Co5  1  0.00000  0.00000  0.00000  1
 Co  Co6  1  0.00000  0.00000  0.50000  1
 Co  Co7  1  0.00000  0.50000  0.00000  1
 Co  Co8  1  0.50000  0.00000  -0.00000  1
 Ge  Ge1  1  0.25000  0.62500  0.37500  1
 Ge  Ge2  1  0.37500  0.25000  0.62500  1
 Ge  Ge3  1  0.87500  0.12500  0.75000  1
 Ge  Ge4  1  0.12500  0.87500  0.25000  1
 Ge  Ge5  1  0.75000  0.87500  0.12500  1
 Ge  Ge6  1  0.12500  0.75000  0.87500  1
 Ge  Ge7  1  0.62500  0.75000  0.37500  1
 Ge  Ge8  1  0.75000  0.37500  0.62500  1
 Ge  Ge9  1  0.37500  0.62500  0.75000  1
 Ge  Ge10  1  0.62500  0.37500  0.25000  1
 Ge  Ge11  1  0.25000  0.12500  0.87500  1
 Ge  Ge12  1  0.87500  0.25000  0.12500  1
 O  O1  1  0.80187  0.41787  0.82011  1
 O  O2  1  0.08213  0.88400  0.40224  1
 O  O3  1  0.67989  0.09776  0.98176  1
 O  O4  1  0.69813  0.51824  0.61600  1
 O  O5  1  0.69813  0.67989  0.08213  1
 O  O6  1  0.51824  0.61600  0.69813  1
 O  O7  1  0.09776  0.61600  0.41787  1
 O  O8  1  0.11600  0.01824  0.19813  1
 O  O9  1  0.40224  0.82011  0.51824  1
 O  O10  1  0.88400  0.98176  0.80187  1
 O  O11  1  0.61600  0.41787  0.09776  1
 O  O12  1  0.08213  0.69813  0.67989  1
 O  O13  1  0.51824  0.40224  0.82011  1
 O  O14  1  0.67989  0.08213  0.69813  1
 O  O15  1  0.41787  0.09776  0.61600  1
 O  O16  1  0.82011  0.51824  0.40224  1
 O  O17  1  0.40224  0.08213  0.88400  1
 O  O18  1  0.09776  0.98176  0.67989  1
 O  O19  1  0.59776  0.17989  0.48176  1
 O  O20  1  0.98176  0.67989  0.09776  1
 O  O21  1  0.82011  0.80187  0.41787  1
 O  O22  1  0.98176  0.80187  0.88400  1
 O  O23  1  0.61600  0.69813  0.51824  1
 O  O24  1  0.19813  0.11600  0.01824  1
 O  O25  1  0.58213  0.17989  0.19813  1
 O  O26  1  0.91787  0.11600  0.59776  1
 O  O27  1  0.32011  0.90224  0.01824  1
 O  O28  1  0.30187  0.48176  0.38400  1
 O  O29  1  0.30187  0.32011  0.91787  1
 O  O30  1  0.48176  0.38400  0.30187  1
 O  O31  1  0.90224  0.38400  0.58213  1
 O  O32  1  0.38400  0.30187  0.48176  1
 O  O33  1  0.88400  0.40224  0.08213  1
 O  O34  1  0.11600  0.59776  0.91787  1
 O  O35  1  0.17989  0.19813  0.58213  1
 O  O36  1  0.90224  0.01824  0.32011  1
 O  O37  1  0.01824  0.32011  0.90224  1
 O  O38  1  0.59776  0.91787  0.11600  1
 O  O39  1  0.17989  0.48176  0.59776  1
 O  O40  1  0.58213  0.90224  0.38400  1
 O  O41  1  0.32011  0.91787  0.30187  1
 O  O42  1  0.48176  0.59776  0.17989  1
 O  O43  1  0.38400  0.58213  0.90224  1
 O  O44  1  0.91787  0.30187  0.32011  1
 O  O45  1  0.01824  0.19813  0.11600  1
 O  O46  1  0.19813  0.58213  0.17989  1
 O  O47  1  0.80187  0.88400  0.98176  1
 O  O48  1  0.41787  0.82011  0.80187  1
