CIF file written using JARVIS-Tools package.
data_YbAu2
_symmetry_space_group_name_H-M  'I4/mmm'
_cell_length_a       3.7115
_cell_length_b       3.7115
_cell_length_c       5.21716
_cell_angle_alpha    110.837
_cell_angle_beta     110.836
_cell_angle_gamma    90

_symmetry_Int_Tables_number  139
_chemical_formula_structural  YbAu2
_chemical_formula_sum  YbAu2
_cell_volume  62.11265576354413
_cell_formula_units_Z  1
loop_
  _symmetry_equiv_pos_site_id
 _symmetry_equiv_pos_as_xyz
 1  'x, y, z'
loop_
 _atom_site_type_symbol
 _atom_site_label
 _atom_site_symmetry_multiplicity
 _atom_site_fract_x
 _atom_site_fract_y
 _atom_site_fract_z
 _atom_site_fract_occupancy
 Au  Au1  1  0.66405  0.66405  0.32810  1
 Au  Au2  1  0.33595  0.33595  0.67190  1
 Yb  Yb1  1  0.00000  0.00000  0.00000  1
