CIF file written using JARVIS-Tools package.
data_Ba3LuIr2O9
_symmetry_space_group_name_H-M  'P6_3/mmc'
_cell_length_a       5.88849
_cell_length_b       5.88849
_cell_length_c       14.5372
_cell_angle_alpha    90
_cell_angle_beta     90
_cell_angle_gamma    120

_symmetry_Int_Tables_number  194
_chemical_formula_structural  Ba3LuIr2O9
_chemical_formula_sum  Ba6Lu2Ir4O8
_cell_volume  436.534843690195
_cell_formula_units_Z  2
loop_
  _symmetry_equiv_pos_site_id
 _symmetry_equiv_pos_as_xyz
 1  'x, y, z'
loop_
 _atom_site_type_symbol
 _atom_site_label
 _atom_site_symmetry_multiplicity
 _atom_site_fract_x
 _atom_site_fract_y
 _atom_site_fract_z
 _atom_site_fract_occupancy
 Ba  Ba1  1  0.33333  0.66667  0.09089  1
 Ba  Ba2  1  0.66667  0.33333  0.59089  1
 Ba  Ba3  1  0.33333  0.66667  0.40911  1
 Ba  Ba4  1  0.00000  0.00000  0.25000  1
 Ba  Ba5  1  0.66667  0.33333  0.90911  1
 Ba  Ba6  1  0.00000  0.00000  0.75000  1
 Ir  Ir1  1  0.33333  0.66667  0.66284  1
 Ir  Ir2  1  0.66667  0.33333  0.33716  1
 Ir  Ir3  1  0.66667  0.33333  0.16284  1
 Ir  Ir4  1  0.33333  0.66667  0.83716  1
 Lu  Lu1  1  0.00000  0.00000  0.50000  1
 Lu  Lu2  1  0.00000  0.00000  0.00000  1
 O  O1  1  0.17397  0.34793  0.91517  1
 O  O2  1  0.82603  0.17397  0.41517  1
 O  O3  1  0.82603  0.17397  0.08483  1
 O  O4  1  0.82603  0.65207  0.08483  1
 O  O5  1  0.98459  0.49229  0.25000  1
 O  O6  1  0.34793  0.17397  0.41517  1
 O  O7  1  0.49229  0.98459  0.75000  1
 O  O8  1  0.65207  0.82603  0.91517  1
 O  O9  1  0.82603  0.65207  0.41517  1
 O  O10  1  0.49229  0.50771  0.75000  1
 O  O11  1  0.17397  0.82603  0.91517  1
 O  O12  1  0.01541  0.50771  0.75000  1
 O  O13  1  0.17397  0.34793  0.58483  1
 O  O14  1  0.17397  0.82603  0.58483  1
 O  O15  1  0.65207  0.82603  0.58483  1
 O  O16  1  0.50771  0.49229  0.25000  1
 O  O17  1  0.34793  0.17397  0.08483  1
 O  O18  1  0.50771  0.01541  0.25000  1
