CIF file written using JARVIS-Tools package.
data_Na2GaNiF7
_symmetry_space_group_name_H-M  'Imma'
_cell_length_a       7.16301
_cell_length_b       7.28328
_cell_length_c       7.28329
_cell_angle_alpha    61.5652
_cell_angle_beta     60.5447
_cell_angle_gamma    60.5448

_symmetry_Int_Tables_number  74
_chemical_formula_structural  Na2GaNiF7
_chemical_formula_sum  Na4Ga2Ni2F4
_cell_volume  273.9828312187841
_cell_formula_units_Z  2
loop_
  _symmetry_equiv_pos_site_id
 _symmetry_equiv_pos_as_xyz
 1  'x, y, z'
loop_
 _atom_site_type_symbol
 _atom_site_label
 _atom_site_symmetry_multiplicity
 _atom_site_fract_x
 _atom_site_fract_y
 _atom_site_fract_z
 _atom_site_fract_occupancy
 F  F1  1  0.41650  0.94591  0.82264  1
 F  F2  1  0.75000  0.11198  0.38802  1
 F  F3  1  0.58927  0.68136  0.14009  1
 F  F4  1  0.91650  0.32264  0.44591  1
 F  F5  1  0.08350  0.67736  0.55409  1
 F  F6  1  0.91073  0.35991  0.81864  1
 F  F7  1  0.18504  0.05409  0.17736  1
 F  F8  1  0.58350  0.05409  0.17736  1
 F  F9  1  0.68504  0.67736  0.55409  1
 F  F10  1  0.25000  0.88802  0.61198  1
 F  F11  1  0.08927  0.64009  0.18136  1
 F  F12  1  0.41073  0.31864  0.85991  1
 F  F13  1  0.81496  0.94591  0.82264  1
 F  F14  1  0.31496  0.32264  0.44591  1
 Ga  Ga1  1  0.00000  0.50000  0.50000  1
 Ga  Ga2  1  0.50000  0.00000  0.00000  1
 Na  Na1  1  0.50000  0.50000  0.50000  1
 Na  Na2  1  -0.00000  0.50000  0.00000  1
 Na  Na3  1  0.00000  0.00000  0.00000  1
 Na  Na4  1  0.50000  0.50000  0.00000  1
 Ni  Ni1  1  0.50000  0.00000  0.50000  1
 Ni  Ni2  1  0.00000  0.00000  0.50000  1
