CIF file written using JARVIS-Tools package.
data_MgSnF6
_symmetry_space_group_name_H-M  'R-3'
_cell_length_a       5.50392
_cell_length_b       5.50392
_cell_length_c       5.50392
_cell_angle_alpha    55.1978
_cell_angle_beta     55.1978
_cell_angle_gamma    55.1977

_symmetry_Int_Tables_number  148
_chemical_formula_structural  MgSnF6
_chemical_formula_sum  MgSnF6
_cell_volume  104.73406677287964
_cell_formula_units_Z  1
loop_
  _symmetry_equiv_pos_site_id
 _symmetry_equiv_pos_as_xyz
 1  'x, y, z'
loop_
 _atom_site_type_symbol
 _atom_site_label
 _atom_site_symmetry_multiplicity
 _atom_site_fract_x
 _atom_site_fract_y
 _atom_site_fract_z
 _atom_site_fract_occupancy
 F  F1  1  0.38404  0.11678  0.74890  1
 F  F2  1  0.11678  0.74890  0.38404  1
 F  F3  1  0.25110  0.61596  0.88322  1
 F  F4  1  0.88322  0.25110  0.61596  1
 F  F5  1  0.61596  0.88322  0.25110  1
 F  F6  1  0.74890  0.38404  0.11678  1
 Mg  Mg1  1  0.50000  0.50000  0.50000  1
 Sn  Sn1  1  0.00000  0.00000  0.00000  1
