CIF file written using JARVIS-Tools package.
data_CaTi4S8
_symmetry_space_group_name_H-M  'R-3m'
_cell_length_a       7.72627
_cell_length_b       7.72628
_cell_length_c       7.72628
_cell_angle_alpha    52.8262
_cell_angle_beta     52.8261
_cell_angle_gamma    52.8262

_symmetry_Int_Tables_number  166
_chemical_formula_structural  CaTi4S8
_chemical_formula_sum  CaTi4S8
_cell_volume  271.26484167217154
_cell_formula_units_Z  1
loop_
  _symmetry_equiv_pos_site_id
 _symmetry_equiv_pos_as_xyz
 1  'x, y, z'
loop_
 _atom_site_type_symbol
 _atom_site_label
 _atom_site_symmetry_multiplicity
 _atom_site_fract_x
 _atom_site_fract_y
 _atom_site_fract_z
 _atom_site_fract_occupancy
 Ca  Ca1  1  0.50000  0.50000  0.50000  1
 S  S1  1  0.76337  0.25554  0.76337  1
 S  S2  1  0.23663  0.23663  0.74446  1
 S  S3  1  0.23663  0.74446  0.23663  1
 S  S4  1  0.74446  0.23663  0.23663  1
 S  S5  1  0.26198  0.26198  0.26198  1
 S  S6  1  0.73802  0.73802  0.73802  1
 S  S7  1  0.25554  0.76337  0.76337  1
 S  S8  1  0.76337  0.76337  0.25554  1
 Ti  Ti1  1  0.50000  1.00000  0.50000  1
 Ti  Ti2  1  1.00000  0.50000  0.50000  1
 Ti  Ti3  1  0.50000  0.50000  -0.00000  1
 Ti  Ti4  1  0.00000  0.00000  0.00000  1
