CIF file written using JARVIS-Tools package.
data_Na2ZrSiO5
_symmetry_space_group_name_H-M  'P2_1/c'
_cell_length_a       13.7644
_cell_length_b       5.49252
_cell_length_c       13.9427
_cell_angle_alpha    90
_cell_angle_beta     119.254
_cell_angle_gamma    90

_symmetry_Int_Tables_number  14
_chemical_formula_structural  Na2ZrSiO5
_chemical_formula_sum  Na6Zr8Si8O40
_cell_volume  919.6448420528393
_cell_formula_units_Z  8
loop_
  _symmetry_equiv_pos_site_id
 _symmetry_equiv_pos_as_xyz
 1  'x, y, z'
loop_
 _atom_site_type_symbol
 _atom_site_label
 _atom_site_symmetry_multiplicity
 _atom_site_fract_x
 _atom_site_fract_y
 _atom_site_fract_z
 _atom_site_fract_occupancy
 Na  Na1  1  0.85200  0.26654  0.92167  1
 Na  Na2  1  0.35200  0.23346  0.92167  1
 Na  Na3  1  0.32839  0.26331  0.17974  1
 Na  Na4  1  0.93201  0.76667  0.58008  1
 Na  Na5  1  0.17161  0.76331  0.82026  1
 Na  Na6  1  0.35082  0.24085  0.68090  1
 Na  Na7  1  0.85082  0.25915  0.68090  1
 Na  Na8  1  0.67161  0.73669  0.82026  1
 Na  Na9  1  0.82839  0.23669  0.17974  1
 Na  Na10  1  0.06799  0.23333  0.41992  1
 Na  Na11  1  0.14918  0.74085  0.31910  1
 Na  Na12  1  0.14800  0.73346  0.07833  1
 Na  Na13  1  0.56799  0.26667  0.41992  1
 Na  Na14  1  0.64800  0.76654  0.07833  1
 Na  Na15  1  0.64918  0.75915  0.31910  1
 Na  Na16  1  0.43201  0.73333  0.58008  1
 O  O1  1  0.85009  0.74851  0.70760  1
 O  O2  1  0.35009  0.75149  0.70760  1
 O  O3  1  0.46927  0.42794  0.86434  1
 O  O4  1  0.54199  0.71305  0.41027  1
 O  O5  1  0.26544  0.96469  0.49223  1
 O  O6  1  0.35982  0.71978  0.20857  1
 O  O7  1  0.95801  0.21305  0.58973  1
 O  O8  1  0.27052  0.47394  0.00147  1
 O  O9  1  0.61089  0.93059  0.64304  1
 O  O10  1  0.11089  0.56941  0.64304  1
 O  O11  1  0.96927  0.07206  0.86434  1
 O  O12  1  0.03073  0.92794  0.13566  1
 O  O13  1  0.22948  0.97394  0.99853  1
 O  O14  1  0.62986  0.19852  0.08979  1
 O  O15  1  0.04199  0.78695  0.41027  1
 O  O16  1  0.45801  0.28695  0.58973  1
 O  O17  1  0.34168  0.60036  0.38325  1
 O  O18  1  0.54143  0.89689  0.87706  1
 O  O19  1  0.04143  0.60311  0.87706  1
 O  O20  1  0.85982  0.78022  0.20857  1
 O  O21  1  0.64991  0.24851  0.29240  1
 O  O22  1  0.12986  0.30148  0.08979  1
 O  O23  1  0.53073  0.57206  0.13566  1
 O  O24  1  0.77052  0.02606  0.00147  1
 O  O25  1  0.45857  0.10311  0.12294  1
 O  O26  1  0.95857  0.39689  0.12294  1
 O  O27  1  0.38911  0.06941  0.35696  1
 O  O28  1  0.73456  0.03531  0.50777  1
 O  O29  1  0.84168  0.89964  0.38325  1
 O  O30  1  0.23456  0.46469  0.50777  1
 O  O31  1  0.14991  0.25149  0.29240  1
 O  O32  1  0.88911  0.43059  0.35696  1
 O  O33  1  0.65832  0.39964  0.61675  1
 O  O34  1  0.72948  0.52606  0.99853  1
 O  O35  1  0.64018  0.28022  0.79143  1
 O  O36  1  0.15832  0.10036  0.61675  1
 O  O37  1  0.14018  0.21978  0.79143  1
 O  O38  1  0.87014  0.69852  0.91021  1
 O  O39  1  0.37014  0.80148  0.91021  1
 O  O40  1  0.76544  0.53531  0.49223  1
 Si  Si1  1  0.06692  0.21954  0.15947  1
 Si  Si2  1  0.93308  0.78046  0.84053  1
 Si  Si3  1  0.40815  0.77713  0.34011  1
 Si  Si4  1  0.90815  0.72287  0.34011  1
 Si  Si5  1  0.56692  0.28046  0.15947  1
 Si  Si6  1  0.43308  0.71954  0.84053  1
 Si  Si7  1  0.09185  0.27713  0.65989  1
 Si  Si8  1  0.59185  0.22287  0.65989  1
 Zr  Zr1  1  0.80710  0.23831  0.43531  1
 Zr  Zr2  1  0.12769  0.26476  0.93516  1
 Zr  Zr3  1  0.87231  0.73524  0.06484  1
 Zr  Zr4  1  0.69290  0.73831  0.56469  1
 Zr  Zr5  1  0.62769  0.23524  0.93516  1
 Zr  Zr6  1  0.30710  0.26169  0.43531  1
 Zr  Zr7  1  0.19290  0.76169  0.56469  1
 Zr  Zr8  1  0.37231  0.76476  0.06484  1
