CIF file written using JARVIS-Tools package.
data_Na2PHO3
_symmetry_space_group_name_H-M  'P2_1/c'
_cell_length_a       5.00085
_cell_length_b       6.94854
_cell_length_c       10.7761
_cell_angle_alpha    90
_cell_angle_beta     115.399
_cell_angle_gamma    90

_symmetry_Int_Tables_number  14
_chemical_formula_structural  Na2PHO3
_chemical_formula_sum  Na8P4H4O2
_cell_volume  338.26123023553515
_cell_formula_units_Z  4
loop_
  _symmetry_equiv_pos_site_id
 _symmetry_equiv_pos_as_xyz
 1  'x, y, z'
loop_
 _atom_site_type_symbol
 _atom_site_label
 _atom_site_symmetry_multiplicity
 _atom_site_fract_x
 _atom_site_fract_y
 _atom_site_fract_z
 _atom_site_fract_occupancy
 H  H1  1  0.92487  0.06733  0.08594  1
 H  H2  1  0.07513  0.56733  0.41406  1
 H  H3  1  0.07513  0.93267  0.91406  1
 H  H4  1  0.92487  0.43267  0.58594  1
 Na  Na1  1  0.52539  0.56323  0.75479  1
 Na  Na2  1  0.88084  0.80775  0.60536  1
 Na  Na3  1  0.52539  0.93677  0.25479  1
 Na  Na4  1  0.47461  0.06323  0.74521  1
 Na  Na5  1  0.11916  0.19225  0.39464  1
 Na  Na6  1  0.88084  0.69225  0.10536  1
 Na  Na7  1  0.47461  0.43677  0.24521  1
 Na  Na8  1  0.11916  0.30775  0.89464  1
 O  O1  1  0.67130  0.18866  0.42608  1
 O  O2  1  0.96286  0.37454  0.18648  1
 O  O3  1  0.48559  0.31672  0.59740  1
 O  O4  1  0.03714  0.87454  0.31352  1
 O  O5  1  0.67130  0.31134  0.92608  1
 O  O6  1  0.51441  0.68328  0.40260  1
 O  O7  1  0.32870  0.81134  0.57392  1
 O  O8  1  0.32870  0.68866  0.07392  1
 O  O9  1  0.96286  0.12546  0.68648  1
 O  O10  1  0.48559  0.18328  0.09740  1
 O  O11  1  0.03714  0.62546  0.81352  1
 O  O12  1  0.51441  0.81672  0.90260  1
 P  P1  1  0.24249  0.76345  0.92675  1
 P  P2  1  0.75751  0.26345  0.57325  1
 P  P3  1  0.75751  0.23655  0.07325  1
 P  P4  1  0.24249  0.73655  0.42675  1
