CIF file written using JARVIS-Tools package.
data_Mn2N
_symmetry_space_group_name_H-M  'Pbcn'
_cell_length_a       4.37504
_cell_length_b       4.81028
_cell_length_c       5.53778
_cell_angle_alpha    90
_cell_angle_beta     90
_cell_angle_gamma    90

_symmetry_Int_Tables_number  60
_chemical_formula_structural  Mn2N
_chemical_formula_sum  Mn8N4
_cell_volume  116.54340858300088
_cell_formula_units_Z  4
loop_
  _symmetry_equiv_pos_site_id
 _symmetry_equiv_pos_as_xyz
 1  'x, y, z'
loop_
 _atom_site_type_symbol
 _atom_site_label
 _atom_site_symmetry_multiplicity
 _atom_site_fract_x
 _atom_site_fract_y
 _atom_site_fract_z
 _atom_site_fract_occupancy
 Mn  Mn1  1  0.24942  0.08319  0.87915  1
 Mn  Mn2  1  0.74942  0.91681  0.62085  1
 Mn  Mn3  1  0.25058  0.58319  0.62085  1
 Mn  Mn4  1  0.75058  0.41681  0.87915  1
 Mn  Mn5  1  0.24942  0.58319  0.12085  1
 Mn  Mn6  1  0.74942  0.41681  0.37915  1
 Mn  Mn7  1  0.25058  0.08319  0.37915  1
 Mn  Mn8  1  0.75058  0.91681  0.12085  1
 N  N1  1  0.50000  0.75000  0.86621  1
 N  N2  1  0.00000  0.25000  0.63379  1
 N  N3  1  0.50000  0.25000  0.13379  1
 N  N4  1  0.00000  0.75000  0.36621  1
