CIF file written using JARVIS-Tools package.
data_Ba2PdF6
_symmetry_space_group_name_H-M  'Cmce'
_cell_length_a       6.2459
_cell_length_b       6.25177
_cell_length_c       9.14475
_cell_angle_alpha    109.988
_cell_angle_beta     90
_cell_angle_gamma    90

_symmetry_Int_Tables_number  64
_chemical_formula_structural  Ba2PdF6
_chemical_formula_sum  Ba4Pd2F2
_cell_volume  335.5747078302936
_cell_formula_units_Z  2
loop_
  _symmetry_equiv_pos_site_id
 _symmetry_equiv_pos_as_xyz
 1  'x, y, z'
loop_
 _atom_site_type_symbol
 _atom_site_label
 _atom_site_symmetry_multiplicity
 _atom_site_fract_x
 _atom_site_fract_y
 _atom_site_fract_z
 _atom_site_fract_occupancy
 Ba  Ba1  1  0.00000  0.16028  0.32057  1
 Ba  Ba2  1  0.50000  0.33972  0.67943  1
 Ba  Ba3  1  0.00000  0.83972  0.67943  1
 Ba  Ba4  1  0.50000  0.66028  0.32057  1
 F  F1  1  0.25000  0.99341  0.50000  1
 F  F2  1  0.75000  0.50659  0.50000  1
 F  F3  1  0.65796  0.24038  0.16560  1
 F  F4  1  0.25000  0.49341  0.50000  1
 F  F5  1  0.75000  0.00659  0.50000  1
 F  F6  1  0.65796  0.07478  0.83440  1
 F  F7  1  0.84204  0.74038  0.16560  1
 F  F8  1  0.15796  0.42522  0.16560  1
 F  F9  1  0.84204  0.57478  0.83440  1
 F  F10  1  0.34204  0.92522  0.16560  1
 F  F11  1  0.34204  0.75962  0.83440  1
 F  F12  1  0.15796  0.25962  0.83440  1
 Pd  Pd1  1  0.50000  0.00000  0.00000  1
 Pd  Pd2  1  0.00000  0.50000  0.00000  1
