CIF file written using JARVIS-Tools package.
data_Er2FeC4
_symmetry_space_group_name_H-M  'Ibam'
_cell_length_a       4.99701
_cell_length_b       6.51392
_cell_length_c       6.51392
_cell_angle_alpha    69.6934
_cell_angle_beta     67.4454
_cell_angle_gamma    67.4454

_symmetry_Int_Tables_number  72
_chemical_formula_structural  Er2FeC4
_chemical_formula_sum  Er4Fe2C8
_cell_volume  175.79670722790203
_cell_formula_units_Z  2
loop_
  _symmetry_equiv_pos_site_id
 _symmetry_equiv_pos_as_xyz
 1  'x, y, z'
loop_
 _atom_site_type_symbol
 _atom_site_label
 _atom_site_symmetry_multiplicity
 _atom_site_fract_x
 _atom_site_fract_y
 _atom_site_fract_z
 _atom_site_fract_occupancy
 C  C1  1  0.42150  0.24517  0.91184  1
 C  C2  1  0.57850  0.75483  0.08816  1
 C  C3  1  0.07850  0.08816  0.75483  1
 C  C4  1  0.92150  0.91184  0.24517  1
 C  C5  1  0.37071  0.46811  0.79046  1
 C  C6  1  0.62929  0.53189  0.20954  1
 C  C7  1  0.87071  0.79046  0.46811  1
 C  C8  1  0.12929  0.20954  0.53189  1
 Er  Er1  1  0.14497  0.51022  0.19985  1
 Er  Er2  1  0.85503  0.48978  0.80015  1
 Er  Er3  1  0.35503  0.80015  0.48978  1
 Er  Er4  1  0.64497  0.19985  0.51022  1
 Fe  Fe1  1  0.25000  -0.00000  -0.00000  1
 Fe  Fe2  1  0.75000  -0.00000  -0.00000  1
