CIF file written using JARVIS-Tools package.
data_LuNiPb
_symmetry_space_group_name_H-M  'P-62m'
_cell_length_a       7.46097
_cell_length_b       7.46097
_cell_length_c       3.75247
_cell_angle_alpha    90
_cell_angle_beta     90
_cell_angle_gamma    120

_symmetry_Int_Tables_number  189
_chemical_formula_structural  LuNiPb
_chemical_formula_sum  Lu3Ni3Pb3
_cell_volume  180.8998169962966
_cell_formula_units_Z  3
loop_
  _symmetry_equiv_pos_site_id
 _symmetry_equiv_pos_as_xyz
 1  'x, y, z'
loop_
 _atom_site_type_symbol
 _atom_site_label
 _atom_site_symmetry_multiplicity
 _atom_site_fract_x
 _atom_site_fract_y
 _atom_site_fract_z
 _atom_site_fract_occupancy
 Lu  Lu1  1  0.59995  -0.00000  0.50000  1
 Lu  Lu2  1  0.40005  0.40005  0.50000  1
 Lu  Lu3  1  -0.00000  0.59995  0.50000  1
 Ni  Ni1  1  0.33333  0.66667  0.00000  1
 Ni  Ni2  1  0.66667  0.33333  0.00000  1
 Ni  Ni3  1  0.00000  0.00000  0.50000  1
 Pb  Pb1  1  0.26802  -0.00000  0.00000  1
 Pb  Pb2  1  0.73198  0.73198  0.00000  1
 Pb  Pb3  1  -0.00000  0.26802  0.00000  1
