CIF file written using JARVIS-Tools package.
data_ScSb
_symmetry_space_group_name_H-M  'Pm-3m'
_cell_length_a       3.61944
_cell_length_b       3.61944
_cell_length_c       3.61944
_cell_angle_alpha    90
_cell_angle_beta     90
_cell_angle_gamma    90

_symmetry_Int_Tables_number  221
_chemical_formula_structural  ScSb
_chemical_formula_sum  ScSb
_cell_volume  47.41585881181327
_cell_formula_units_Z  1
loop_
  _symmetry_equiv_pos_site_id
 _symmetry_equiv_pos_as_xyz
 1  'x, y, z'
loop_
 _atom_site_type_symbol
 _atom_site_label
 _atom_site_symmetry_multiplicity
 _atom_site_fract_x
 _atom_site_fract_y
 _atom_site_fract_z
 _atom_site_fract_occupancy
 Sb  Sb1  1  0.50000  0.50000  0.50000  1
 Sc  Sc1  1  0.00000  0.00000  0.00000  1
