CIF file written using JARVIS-Tools package.
data_Dy2Si5Rh3
_symmetry_space_group_name_H-M  'Ibam'
_cell_length_a       5.78372
_cell_length_b       8.16356
_cell_length_c       8.16356
_cell_angle_alpha    74.6455
_cell_angle_beta     69.2532
_cell_angle_gamma    69.2532

_symmetry_Int_Tables_number  72
_chemical_formula_structural  Dy2Si5Rh3
_chemical_formula_sum  Dy4Si0Rh6
_cell_volume  332.7761800984842
_cell_formula_units_Z  2
loop_
  _symmetry_equiv_pos_site_id
 _symmetry_equiv_pos_as_xyz
 1  'x, y, z'
loop_
 _atom_site_type_symbol
 _atom_site_label
 _atom_site_symmetry_multiplicity
 _atom_site_fract_x
 _atom_site_fract_y
 _atom_site_fract_z
 _atom_site_fract_occupancy
 Dy  Dy1  1  0.86799  0.86329  0.40072  1
 Dy  Dy2  1  0.63201  0.59928  0.13671  1
 Dy  Dy3  1  0.36799  0.40072  0.86329  1
 Dy  Dy4  1  0.13201  0.13671  0.59928  1
 Rh  Rh1  1  0.63997  0.25040  0.46966  1
 Rh  Rh2  1  0.36003  0.74960  0.53034  1
 Rh  Rh3  1  0.86003  0.53034  0.74960  1
 Rh  Rh4  1  0.75000  -0.00000  -0.00000  1
 Rh  Rh5  1  0.25000  -0.00000  -0.00000  1
 Rh  Rh6  1  0.13997  0.46966  0.25040  1
 Si  Si1  1  0.39531  0.94700  0.26238  1
 Si  Si2  1  0.89531  0.26238  0.94700  1
 Si  Si3  1  0.97234  0.77766  0.77766  1
 Si  Si4  1  0.52766  0.22234  0.22234  1
 Si  Si5  1  0.47234  0.77766  0.77766  1
 Si  Si6  1  0.10469  0.73762  0.05300  1
 Si  Si7  1  0.75000  0.50000  0.50000  1
 Si  Si8  1  0.25000  0.50000  0.50000  1
 Si  Si9  1  0.02766  0.22234  0.22234  1
 Si  Si10  1  0.60469  0.05300  0.73762  1
