CIF file written using JARVIS-Tools package.
data_K2GeF6
_symmetry_space_group_name_H-M  'P6_3mc'
_cell_length_a       5.72904
_cell_length_b       5.72904
_cell_length_c       9.28409
_cell_angle_alpha    90
_cell_angle_beta     90
_cell_angle_gamma    120

_symmetry_Int_Tables_number  186
_chemical_formula_structural  K2GeF6
_chemical_formula_sum  K4Ge2F2
_cell_volume  263.8958324588726
_cell_formula_units_Z  2
loop_
  _symmetry_equiv_pos_site_id
 _symmetry_equiv_pos_as_xyz
 1  'x, y, z'
loop_
 _atom_site_type_symbol
 _atom_site_label
 _atom_site_symmetry_multiplicity
 _atom_site_fract_x
 _atom_site_fract_y
 _atom_site_fract_z
 _atom_site_fract_occupancy
 F  F1  1  0.35782  0.17891  0.86579  1
 F  F2  1  0.51657  0.48343  0.64105  1
 F  F3  1  0.03314  0.51657  0.14105  1
 F  F4  1  0.64218  0.82109  0.36579  1
 F  F5  1  0.51657  0.03314  0.64105  1
 F  F6  1  0.48343  0.96686  0.14105  1
 F  F7  1  0.48343  0.51657  0.14105  1
 F  F8  1  0.17891  0.82109  0.36579  1
 F  F9  1  0.82109  0.17891  0.86579  1
 F  F10  1  0.82109  0.64218  0.86579  1
 F  F11  1  0.17891  0.35782  0.36579  1
 F  F12  1  0.96686  0.48343  0.64105  1
 Ge  Ge1  1  0.33333  0.66667  0.25737  1
 Ge  Ge2  1  0.66667  0.33333  0.75737  1
 K  K1  1  0.33333  0.66667  0.87357  1
 K  K2  1  0.66667  0.33333  0.37357  1
 K  K3  1  0.00000  0.00000  0.59852  1
 K  K4  1  0.00000  0.00000  0.09852  1
