CIF file written using JARVIS-Tools package.
data_ZnCN2
_symmetry_space_group_name_H-M  'I-42d'
_cell_length_a       5.49309
_cell_length_b       6.7973
_cell_length_c       6.7973
_cell_angle_alpha    80.6033
_cell_angle_beta     66.1675
_cell_angle_gamma    66.1675

_symmetry_Int_Tables_number  122
_chemical_formula_structural  ZnCN2
_chemical_formula_sum  Zn4C4N8
_cell_volume  212.3616622700481
_cell_formula_units_Z  4
loop_
  _symmetry_equiv_pos_site_id
 _symmetry_equiv_pos_as_xyz
 1  'x, y, z'
loop_
 _atom_site_type_symbol
 _atom_site_label
 _atom_site_symmetry_multiplicity
 _atom_site_fract_x
 _atom_site_fract_y
 _atom_site_fract_z
 _atom_site_fract_occupancy
 C  C1  1  0.69162  0.18338  0.68338  1
 C  C2  1  0.62500  0.68338  0.81662  1
 C  C3  1  0.55838  0.81662  0.31662  1
 C  C4  1  0.12500  0.31662  0.18338  1
 N  N1  1  0.27105  0.37901  0.23648  1
 N  N2  1  0.34994  0.76352  0.37901  1
 N  N3  1  0.88654  0.62099  0.76352  1
 N  N4  1  0.49247  0.23648  0.62099  1
 N  N5  1  0.97895  0.26352  0.12099  1
 N  N6  1  0.90006  0.12099  0.73648  1
 N  N7  1  0.75753  0.87901  0.26352  1
 N  N8  1  0.36346  0.73648  0.87901  1
 Zn  Zn1  1  0.17067  0.70433  0.20433  1
 Zn  Zn2  1  0.62500  0.20433  0.29567  1
 Zn  Zn3  1  0.12500  0.79567  0.70433  1
 Zn  Zn4  1  0.07933  0.29567  0.79567  1
