CIF file written using JARVIS-Tools package.
data_NaSrBO3
_symmetry_space_group_name_H-M  'P2_1/c'
_cell_length_a       5.34948
_cell_length_b       9.29228
_cell_length_c       6.05387
_cell_angle_alpha    90
_cell_angle_beta     100.851
_cell_angle_gamma    90

_symmetry_Int_Tables_number  14
_chemical_formula_structural  NaSrBO3
_chemical_formula_sum  Na4Sr4B4O2
_cell_volume  295.5508222948752
_cell_formula_units_Z  4
loop_
  _symmetry_equiv_pos_site_id
 _symmetry_equiv_pos_as_xyz
 1  'x, y, z'
loop_
 _atom_site_type_symbol
 _atom_site_label
 _atom_site_symmetry_multiplicity
 _atom_site_fract_x
 _atom_site_fract_y
 _atom_site_fract_z
 _atom_site_fract_occupancy
 B  B1  1  0.75283  0.41928  0.26201  1
 B  B2  1  0.75283  0.08072  0.76201  1
 B  B3  1  0.24717  0.91928  0.23799  1
 B  B4  1  0.24717  0.58072  0.73799  1
 Na  Na1  1  0.74259  0.75851  0.96388  1
 Na  Na2  1  0.74259  0.74149  0.46388  1
 Na  Na3  1  0.25741  0.24149  0.03612  1
 Na  Na4  1  0.25741  0.25851  0.53612  1
 O  O1  1  0.96060  0.34219  0.21832  1
 O  O2  1  0.03940  0.65781  0.78168  1
 O  O3  1  0.27287  0.43938  0.81222  1
 O  O4  1  0.57157  0.14494  0.86594  1
 O  O5  1  0.42843  0.64494  0.63406  1
 O  O6  1  0.57157  0.35506  0.36594  1
 O  O7  1  0.42843  0.85506  0.13406  1
 O  O8  1  0.72713  0.56062  0.18778  1
 O  O9  1  0.27287  0.06062  0.31222  1
 O  O10  1  0.96060  0.15781  0.71832  1
 O  O11  1  0.03940  0.84219  0.28168  1
 O  O12  1  0.72713  0.93938  0.68778  1
 Sr  Sr1  1  0.24588  0.58574  0.21641  1
 Sr  Sr2  1  0.24588  0.91426  0.71641  1
 Sr  Sr3  1  0.75412  0.41426  0.78359  1
 Sr  Sr4  1  0.75412  0.08574  0.28359  1
