CIF file written using JARVIS-Tools package.
data_Na2Ca3Si3O10
_symmetry_space_group_name_H-M  'C2/c'
_cell_length_a       5.17245
_cell_length_b       8.57112
_cell_length_c       11.3757
_cell_angle_alpha    92.7245
_cell_angle_beta     90
_cell_angle_gamma    107.562

_symmetry_Int_Tables_number  15
_chemical_formula_structural  Na2Ca3Si3O10
_chemical_formula_sum  Na4Ca6Si6O20
_cell_volume  480.2212366896873
_cell_formula_units_Z  2
loop_
  _symmetry_equiv_pos_site_id
 _symmetry_equiv_pos_as_xyz
 1  'x, y, z'
loop_
 _atom_site_type_symbol
 _atom_site_label
 _atom_site_symmetry_multiplicity
 _atom_site_fract_x
 _atom_site_fract_y
 _atom_site_fract_z
 _atom_site_fract_occupancy
 Ca  Ca1  1  0.08520  0.69648  0.79201  1
 Ca  Ca2  1  0.61128  0.69648  0.29201  1
 Ca  Ca3  1  -0.00000  0.50000  0.50000  1
 Ca  Ca4  1  0.38872  0.30352  0.70799  1
 Ca  Ca5  1  0.91480  0.30352  0.20799  1
 Ca  Ca6  1  0.50000  0.50000  -0.00000  1
 Na  Na1  1  0.72369  0.91359  0.03434  1
 Na  Na2  1  0.18990  0.91359  0.53434  1
 Na  Na3  1  0.81010  0.08641  0.46566  1
 Na  Na4  1  0.27631  0.08641  0.96566  1
 O  O1  1  0.84626  0.68933  0.60869  1
 O  O2  1  0.58117  0.28224  0.52735  1
 O  O3  1  0.70107  0.28224  0.02735  1
 O  O4  1  0.51626  0.86468  0.68535  1
 O  O5  1  0.41883  0.71776  0.47265  1
 O  O6  1  0.15692  0.31067  0.89131  1
 O  O7  1  0.00725  0.08738  0.65038  1
 O  O8  1  0.91987  0.91262  0.84962  1
 O  O9  1  0.65158  0.13532  0.81465  1
 O  O10  1  0.99275  0.91262  0.34962  1
 O  O11  1  0.48374  0.13532  0.31465  1
 O  O12  1  0.30800  0.54451  0.66230  1
 O  O13  1  0.23651  0.54451  0.16230  1
 O  O14  1  0.15374  0.31067  0.39131  1
 O  O15  1  0.34842  0.86468  0.18535  1
 O  O16  1  0.76349  0.45549  0.83770  1
 O  O17  1  0.29893  0.71776  0.97265  1
 O  O18  1  0.08013  0.08738  0.15038  1
 O  O19  1  0.84308  0.68933  0.10869  1
 O  O20  1  0.69200  0.45549  0.33770  1
 Si  Si1  1  0.20482  -0.00000  0.25000  1
 Si  Si2  1  0.79518  0.00000  0.75000  1
 Si  Si3  1  0.16013  0.69709  0.10280  1
 Si  Si4  1  0.53696  0.69709  0.60280  1
 Si  Si5  1  0.83987  0.30291  0.89720  1
 Si  Si6  1  0.46304  0.30291  0.39720  1
