CIF file written using JARVIS-Tools package.
data_Cd2Hg
_symmetry_space_group_name_H-M  'I4/mmm'
_cell_length_a       4.02572
_cell_length_b       4.02573
_cell_length_c       5.22845
_cell_angle_alpha    112.643
_cell_angle_beta     112.643
_cell_angle_gamma    90

_symmetry_Int_Tables_number  139
_chemical_formula_structural  Cd2Hg
_chemical_formula_sum  Cd2Hg
_cell_volume  71.07489272501601
_cell_formula_units_Z  1
loop_
  _symmetry_equiv_pos_site_id
 _symmetry_equiv_pos_as_xyz
 1  'x, y, z'
loop_
 _atom_site_type_symbol
 _atom_site_label
 _atom_site_symmetry_multiplicity
 _atom_site_fract_x
 _atom_site_fract_y
 _atom_site_fract_z
 _atom_site_fract_occupancy
 Cd  Cd1  1  0.33388  0.33388  0.66777  1
 Cd  Cd2  1  0.66612  0.66612  0.33223  1
 Hg  Hg1  1  0.00000  0.00000  0.00000  1
