CIF file written using JARVIS-Tools package.
data_Hg
_symmetry_space_group_name_H-M  'R-3m'
_cell_length_a       3.09502
_cell_length_b       3.09502
_cell_length_c       3.09503
_cell_angle_alpha    79.7393
_cell_angle_beta     79.7394
_cell_angle_gamma    79.7393

_symmetry_Int_Tables_number  166
_chemical_formula_structural  Hg
_chemical_formula_sum  Hg
_cell_volume  28.376997959086175
_cell_formula_units_Z  1
loop_
  _symmetry_equiv_pos_site_id
 _symmetry_equiv_pos_as_xyz
 1  'x, y, z'
loop_
 _atom_site_type_symbol
 _atom_site_label
 _atom_site_symmetry_multiplicity
 _atom_site_fract_x
 _atom_site_fract_y
 _atom_site_fract_z
 _atom_site_fract_occupancy
 Hg  Hg1  1  0.00000  0.00000  0.00000  1
