CIF file written using JARVIS-Tools package.
data_Hg2P3Br
_symmetry_space_group_name_H-M  'Pbcn'
_cell_length_a       7.9774
_cell_length_b       8.12348
_cell_length_c       9.0021
_cell_angle_alpha    90
_cell_angle_beta     90
_cell_angle_gamma    90

_symmetry_Int_Tables_number  60
_chemical_formula_structural  Hg2P3Br
_chemical_formula_sum  Hg8P2Br4
_cell_volume  583.3743804558
_cell_formula_units_Z  4
loop_
  _symmetry_equiv_pos_site_id
 _symmetry_equiv_pos_as_xyz
 1  'x, y, z'
loop_
 _atom_site_type_symbol
 _atom_site_label
 _atom_site_symmetry_multiplicity
 _atom_site_fract_x
 _atom_site_fract_y
 _atom_site_fract_z
 _atom_site_fract_occupancy
 Br  Br1  1  0.25000  0.00000  0.61209  1
 Br  Br2  1  0.75000  0.50000  0.88791  1
 Br  Br3  1  0.25000  0.50000  0.11209  1
 Br  Br4  1  0.75000  0.00000  0.38791  1
 Hg  Hg1  1  0.10150  0.78595  0.32786  1
 Hg  Hg2  1  0.89850  0.21405  0.67214  1
 Hg  Hg3  1  0.60150  0.71405  0.17214  1
 Hg  Hg4  1  0.10150  0.71405  0.82786  1
 Hg  Hg5  1  0.39850  0.21405  0.32786  1
 Hg  Hg6  1  0.89850  0.28595  0.17214  1
 Hg  Hg7  1  0.39850  0.28595  0.82786  1
 Hg  Hg8  1  0.60150  0.78595  0.67214  1
 P  P1  1  0.57840  0.11348  0.98813  1
 P  P2  1  0.75000  0.00000  0.82182  1
 P  P3  1  0.57840  0.38652  0.48813  1
 P  P4  1  0.92160  0.61348  0.48813  1
 P  P5  1  0.42160  0.88652  0.01187  1
 P  P6  1  0.42160  0.61348  0.51187  1
 P  P7  1  0.07840  0.38652  0.51187  1
 P  P8  1  0.25000  0.50000  0.67818  1
 P  P9  1  0.07840  0.11348  0.01187  1
 P  P10  1  0.75000  0.50000  0.32182  1
 P  P11  1  0.92160  0.88652  0.98813  1
 P  P12  1  0.25000  0.00000  0.17818  1
