CIF file written using JARVIS-Tools package.
data_LiCaCrF6
_symmetry_space_group_name_H-M  'P-31c'
_cell_length_a       5.11666
_cell_length_b       5.11666
_cell_length_c       9.81168
_cell_angle_alpha    90
_cell_angle_beta     90
_cell_angle_gamma    120

_symmetry_Int_Tables_number  163
_chemical_formula_structural  LiCaCrF6
_chemical_formula_sum  Li2Ca2Cr2F2
_cell_volume  222.45802547145564
_cell_formula_units_Z  2
loop_
  _symmetry_equiv_pos_site_id
 _symmetry_equiv_pos_as_xyz
 1  'x, y, z'
loop_
 _atom_site_type_symbol
 _atom_site_label
 _atom_site_symmetry_multiplicity
 _atom_site_fract_x
 _atom_site_fract_y
 _atom_site_fract_z
 _atom_site_fract_occupancy
 Ca  Ca1  1  0.00000  0.00000  0.00000  1
 Ca  Ca2  1  0.00000  0.00000  0.50000  1
 Cr  Cr1  1  0.66667  0.33333  0.25000  1
 Cr  Cr2  1  0.33333  0.66667  0.75000  1
 F  F1  1  0.65024  0.01403  0.36020  1
 F  F2  1  0.65024  0.63621  0.13980  1
 F  F3  1  0.98597  0.34976  0.13980  1
 F  F4  1  0.63621  0.65024  0.63980  1
 F  F5  1  0.01403  0.65024  0.86020  1
 F  F6  1  0.34976  0.98597  0.63980  1
 F  F7  1  0.34976  0.36379  0.86020  1
 F  F8  1  0.63621  0.98597  0.86020  1
 F  F9  1  0.36379  0.34976  0.36020  1
 F  F10  1  0.01403  0.36379  0.63980  1
 F  F11  1  0.36379  0.01403  0.13980  1
 F  F12  1  0.98597  0.63621  0.36020  1
 Li  Li1  1  0.66667  0.33333  0.75000  1
 Li  Li2  1  0.33333  0.66667  0.25000  1
