CIF file written using JARVIS-Tools package.
data_Cu2SnTe3
_symmetry_space_group_name_H-M  'Imm2'
_cell_length_a       4.40357
_cell_length_b       6.12544
_cell_length_c       7.56245
_cell_angle_alpha    113.891
_cell_angle_beta     106.927
_cell_angle_gamma    90

_symmetry_Int_Tables_number  44
_chemical_formula_structural  Cu2SnTe3
_chemical_formula_sum  Cu2SnTe3
_cell_volume  176.80197865737352
_cell_formula_units_Z  1
loop_
  _symmetry_equiv_pos_site_id
 _symmetry_equiv_pos_as_xyz
 1  'x, y, z'
loop_
 _atom_site_type_symbol
 _atom_site_label
 _atom_site_symmetry_multiplicity
 _atom_site_fract_x
 _atom_site_fract_y
 _atom_site_fract_z
 _atom_site_fract_occupancy
 Cu  Cu1  1  0.82942  0.56920  0.65884  1
 Cu  Cu2  1  0.17058  0.91035  0.34116  1
 Sn  Sn1  1  0.50000  0.26608  -0.00000  1
 Te  Te1  1  0.68062  0.69929  0.36125  1
 Te  Te2  1  0.31938  0.33804  0.63875  1
 Te  Te3  1  0.00000  0.95904  0.00000  1
