CIF file written using JARVIS-Tools package.
data_VAg2PO6
_symmetry_space_group_name_H-M  'C2/m'
_cell_length_a       6.31274
_cell_length_b       6.34401
_cell_length_c       6.95427
_cell_angle_alpha    90.8347
_cell_angle_beta     116.993
_cell_angle_gamma    90

_symmetry_Int_Tables_number  12
_chemical_formula_structural  VAg2PO6
_chemical_formula_sum  V2Ag4P2O2
_cell_volume  248.13290579463342
_cell_formula_units_Z  2
loop_
  _symmetry_equiv_pos_site_id
 _symmetry_equiv_pos_as_xyz
 1  'x, y, z'
loop_
 _atom_site_type_symbol
 _atom_site_label
 _atom_site_symmetry_multiplicity
 _atom_site_fract_x
 _atom_site_fract_y
 _atom_site_fract_z
 _atom_site_fract_occupancy
 Ag  Ag1  1  0.36261  0.61512  0.23172  1
 Ag  Ag2  1  0.86912  0.61512  0.23172  1
 Ag  Ag3  1  0.63739  0.38488  0.76828  1
 Ag  Ag4  1  0.13088  0.38488  0.76828  1
 O  O1  1  0.70413  0.28688  0.40825  1
 O  O2  1  0.50775  0.79249  0.01550  1
 O  O3  1  0.08003  0.97946  0.76441  1
 O  O4  1  0.31562  0.02054  0.23559  1
 O  O5  1  0.29587  0.71312  0.59175  1
 O  O6  1  0.09672  0.36463  0.19345  1
 O  O7  1  0.27761  0.17756  0.55522  1
 O  O8  1  0.72239  0.82244  0.44478  1
 O  O9  1  0.90328  0.63537  0.80655  1
 O  O10  1  0.68438  0.97946  0.76441  1
 O  O11  1  0.49225  0.20751  0.98450  1
 O  O12  1  0.91997  0.02054  0.23559  1
 P  P1  1  0.15256  0.14947  0.30511  1
 P  P2  1  0.84744  0.85053  0.69489  1
 V  V1  1  0.38366  0.91248  0.76731  1
 V  V2  1  0.61634  0.08752  0.23269  1
