CIF file written using JARVIS-Tools package.
data_Ge3Bi2O9
_symmetry_space_group_name_H-M  'P6_3/m'
_cell_length_a       6.99319
_cell_length_b       6.99319
_cell_length_c       10.048
_cell_angle_alpha    90
_cell_angle_beta     90
_cell_angle_gamma    120

_symmetry_Int_Tables_number  176
_chemical_formula_structural  Ge3Bi2O9
_chemical_formula_sum  Ge6Bi4O8
_cell_volume  425.55887091869363
_cell_formula_units_Z  2
loop_
  _symmetry_equiv_pos_site_id
 _symmetry_equiv_pos_as_xyz
 1  'x, y, z'
loop_
 _atom_site_type_symbol
 _atom_site_label
 _atom_site_symmetry_multiplicity
 _atom_site_fract_x
 _atom_site_fract_y
 _atom_site_fract_z
 _atom_site_fract_occupancy
 Bi  Bi1  1  0.33333  0.66667  0.46788  1
 Bi  Bi2  1  0.66667  0.33333  0.53212  1
 Bi  Bi3  1  0.66667  0.33333  0.96788  1
 Bi  Bi4  1  0.33333  0.66667  0.03212  1
 Ge  Ge1  1  0.70507  0.92487  0.75000  1
 Ge  Ge2  1  0.29493  0.07513  0.25000  1
 Ge  Ge3  1  0.92487  0.21980  0.25000  1
 Ge  Ge4  1  0.07513  0.78020  0.75000  1
 Ge  Ge5  1  0.21980  0.29493  0.75000  1
 Ge  Ge6  1  0.78020  0.70507  0.25000  1
 O  O1  1  0.64427  0.57198  0.10214  1
 O  O2  1  0.35573  0.42802  0.89786  1
 O  O3  1  0.07229  0.64427  0.89786  1
 O  O4  1  0.92771  0.35573  0.39786  1
 O  O5  1  0.64427  0.57198  0.39786  1
 O  O6  1  0.57198  0.92771  0.89786  1
 O  O7  1  0.57198  0.92771  0.60214  1
 O  O8  1  0.92771  0.35573  0.10214  1
 O  O9  1  0.06717  0.79423  0.25000  1
 O  O10  1  0.20577  0.27294  0.25000  1
 O  O11  1  0.93283  0.20577  0.75000  1
 O  O12  1  0.42802  0.07229  0.39786  1
 O  O13  1  0.27294  0.06717  0.75000  1
 O  O14  1  0.79423  0.72706  0.75000  1
 O  O15  1  0.42802  0.07229  0.10214  1
 O  O16  1  0.35573  0.42802  0.60214  1
 O  O17  1  0.07229  0.64427  0.60214  1
 O  O18  1  0.72706  0.93283  0.25000  1
