CIF file written using JARVIS-Tools package.
data_CIF7
_symmetry_space_group_name_H-M  'P2_1/c'
_cell_length_a       7.05781
_cell_length_b       8.40597
_cell_length_c       8.56353
_cell_angle_alpha    90
_cell_angle_beta     100.421
_cell_angle_gamma    90

_symmetry_Int_Tables_number  14
_chemical_formula_structural  CIF7
_chemical_formula_sum  C4I4F28
_cell_volume  499.6750115067175
_cell_formula_units_Z  4
loop_
  _symmetry_equiv_pos_site_id
 _symmetry_equiv_pos_as_xyz
 1  'x, y, z'
loop_
 _atom_site_type_symbol
 _atom_site_label
 _atom_site_symmetry_multiplicity
 _atom_site_fract_x
 _atom_site_fract_y
 _atom_site_fract_z
 _atom_site_fract_occupancy
 C  C1  1  0.34220  0.59067  0.71436  1
 C  C2  1  0.65780  0.09067  0.78564  1
 C  C3  1  0.65780  0.40933  0.28564  1
 C  C4  1  0.34220  0.90933  0.21436  1
 F  F1  1  0.81766  0.43463  0.00409  1
 F  F2  1  0.18234  0.93463  0.49591  1
 F  F3  1  0.95167  0.55192  0.69892  1
 F  F4  1  0.04833  0.05192  0.80108  1
 F  F5  1  0.71426  0.08893  0.94199  1
 F  F6  1  0.95167  0.94808  0.19892  1
 F  F7  1  0.68818  0.23289  0.72590  1
 F  F8  1  0.81766  0.06537  0.50409  1
 F  F9  1  0.68818  0.26711  0.22590  1
 F  F10  1  0.31182  0.76711  0.27410  1
 F  F11  1  0.52428  0.54621  0.75505  1
 F  F12  1  0.47572  0.04621  0.74495  1
 F  F13  1  0.47572  0.45379  0.24495  1
 F  F14  1  0.31182  0.73289  0.77410  1
 F  F15  1  0.18234  0.56537  0.99591  1
 F  F16  1  0.60201  0.68289  0.08447  1
 F  F17  1  0.28574  0.58893  0.55801  1
 F  F18  1  0.60201  0.81711  0.58447  1
 F  F19  1  0.39799  0.31711  0.91553  1
 F  F20  1  0.16418  0.20136  0.11981  1
 F  F21  1  0.83582  0.70136  0.38019  1
 F  F22  1  0.83582  0.79864  0.88019  1
 F  F23  1  0.16418  0.29864  0.61981  1
 F  F24  1  0.71426  0.41107  0.44199  1
 F  F25  1  0.28574  0.91107  0.05801  1
 F  F26  1  0.52428  0.95379  0.25505  1
 F  F27  1  0.39799  0.18289  0.41553  1
 F  F28  1  0.04833  0.44808  0.30108  1
 I  I1  1  0.15288  0.08749  0.31841  1
 I  I2  1  0.84712  0.58749  0.18159  1
 I  I3  1  0.15288  0.41251  0.81841  1
 I  I4  1  0.84712  0.91251  0.68159  1
