CIF file written using JARVIS-Tools package.
data_NiBiAsO5
_symmetry_space_group_name_H-M  'P-1'
_cell_length_a       5.25487
_cell_length_b       6.77244
_cell_length_c       6.85978
_cell_angle_alpha    111.298
_cell_angle_beta     107.627
_cell_angle_gamma    95.29

_symmetry_Int_Tables_number  2
_chemical_formula_structural  NiBiAsO5
_chemical_formula_sum  Ni2Bi2As2O0
_cell_volume  211.08018720725565
_cell_formula_units_Z  2
loop_
  _symmetry_equiv_pos_site_id
 _symmetry_equiv_pos_as_xyz
 1  'x, y, z'
loop_
 _atom_site_type_symbol
 _atom_site_label
 _atom_site_symmetry_multiplicity
 _atom_site_fract_x
 _atom_site_fract_y
 _atom_site_fract_z
 _atom_site_fract_occupancy
 As  As1  1  0.84373  0.81232  0.61180  1
 As  As2  1  0.15627  0.18768  0.38820  1
 Bi  Bi1  1  0.41307  0.23304  0.97159  1
 Bi  Bi2  1  0.58693  0.76696  0.02841  1
 Ni  Ni1  1  0.83161  0.36314  0.73993  1
 Ni  Ni2  1  0.16839  0.63686  0.26007  1
 O  O1  1  0.77416  0.49932  0.05038  1
 O  O2  1  0.27074  0.35529  0.27744  1
 O  O3  1  0.72926  0.64471  0.72256  1
 O  O4  1  0.57913  0.77755  0.37137  1
 O  O5  1  0.08402  0.91624  0.19552  1
 O  O6  1  0.85602  0.23575  0.42519  1
 O  O7  1  0.22584  0.50068  0.94962  1
 O  O8  1  0.91598  0.08376  0.80448  1
 O  O9  1  0.42087  0.22245  0.62863  1
 O  O10  1  0.14398  0.76425  0.57481  1
