CIF file written using JARVIS-Tools package.
data_LiCoP2O7
_symmetry_space_group_name_H-M  'C2'
_cell_length_a       4.39791
_cell_length_b       5.09247
_cell_length_c       5.09251
_cell_angle_alpha    102.307
_cell_angle_beta     98.4631
_cell_angle_gamma    98.4639

_symmetry_Int_Tables_number  5
_chemical_formula_structural  LiCoP2O7
_chemical_formula_sum  LiCoP2O7
_cell_volume  108.32087507231014
_cell_formula_units_Z  1
loop_
  _symmetry_equiv_pos_site_id
 _symmetry_equiv_pos_as_xyz
 1  'x, y, z'
loop_
 _atom_site_type_symbol
 _atom_site_label
 _atom_site_symmetry_multiplicity
 _atom_site_fract_x
 _atom_site_fract_y
 _atom_site_fract_z
 _atom_site_fract_occupancy
 Co  Co1  1  0.72365  0.45186  0.94028  1
 Li  Li1  1  0.72358  0.08313  0.30912  1
 O  O1  1  0.46516  0.45688  0.60040  1
 O  O2  1  -0.00014  0.39751  0.23988  1
 O  O3  1  0.53255  0.68119  0.19997  1
 O  O4  1  0.44744  0.15228  0.99464  1
 O  O5  1  0.22368  0.87273  0.51942  1
 O  O6  1  0.91477  0.19216  0.71097  1
 O  O7  1  0.98218  0.79171  0.93523  1
 P  P1  1  0.13212  0.00530  0.80646  1
 P  P2  1  0.31520  0.58569  0.38683  1
