CIF file written using JARVIS-Tools package.
data_Tb2BaMn2O7
_symmetry_space_group_name_H-M  'C2/m'
_cell_length_a       5.51616
_cell_length_b       5.60198
_cell_length_c       10.295
_cell_angle_alpha    74.2164
_cell_angle_beta     89.9834
_cell_angle_gamma    89.9424

_symmetry_Int_Tables_number  12
_chemical_formula_structural  Tb2BaMn2O7
_chemical_formula_sum  Tb4Ba2Mn4O4
_cell_volume  306.13485793966566
_cell_formula_units_Z  2
loop_
  _symmetry_equiv_pos_site_id
 _symmetry_equiv_pos_as_xyz
 1  'x, y, z'
loop_
 _atom_site_type_symbol
 _atom_site_label
 _atom_site_symmetry_multiplicity
 _atom_site_fract_x
 _atom_site_fract_y
 _atom_site_fract_z
 _atom_site_fract_occupancy
 Ba  Ba1  1  0.74702  0.74245  0.00000  1
 Ba  Ba2  1  0.25298  0.25755  -0.00000  1
 Mn  Mn1  1  0.75361  0.34920  0.79346  1
 Mn  Mn2  1  0.24638  0.85735  0.79346  1
 Mn  Mn3  1  0.24639  0.65080  0.20654  1
 Mn  Mn4  1  0.75362  0.14265  0.20654  1
 O  O1  1  -0.00000  0.60649  0.78703  1
 O  O2  1  0.50000  0.88237  0.23525  1
 O  O3  1  0.24041  0.77715  0.00000  1
 O  O4  1  0.72697  0.11086  0.41951  1
 O  O5  1  0.27303  0.88914  0.58049  1
 O  O6  1  0.00000  0.87567  0.24865  1
 O  O7  1  0.50000  0.60081  0.79838  1
 O  O8  1  0.50000  0.39919  0.20162  1
 O  O9  1  0.50000  0.11763  0.76475  1
 O  O10  1  0.75959  0.22285  -0.00000  1
 O  O11  1  0.72698  0.53037  0.58049  1
 O  O12  1  -0.00000  0.12433  0.75135  1
 O  O13  1  0.00000  0.39351  0.21297  1
 O  O14  1  0.27302  0.46963  0.41951  1
 Tb  Tb1  1  0.73443  0.90740  0.63434  1
 Tb  Tb2  1  0.26557  0.09260  0.36566  1
 Tb  Tb3  1  0.26556  0.45826  0.63434  1
 Tb  Tb4  1  0.73444  0.54174  0.36566  1
