CIF file written using JARVIS-Tools package.
data_RbZrMnF7
_symmetry_space_group_name_H-M  'Cmcm'
_cell_length_a       6.44097
_cell_length_b       8.32852
_cell_length_c       6.44094
_cell_angle_alpha    90
_cell_angle_beta     117.339
_cell_angle_gamma    90

_symmetry_Int_Tables_number  63
_chemical_formula_structural  RbZrMnF7
_chemical_formula_sum  Rb2Zr2Mn2F4
_cell_volume  306.92367139699087
_cell_formula_units_Z  2
loop_
  _symmetry_equiv_pos_site_id
 _symmetry_equiv_pos_as_xyz
 1  'x, y, z'
loop_
 _atom_site_type_symbol
 _atom_site_label
 _atom_site_symmetry_multiplicity
 _atom_site_fract_x
 _atom_site_fract_y
 _atom_site_fract_z
 _atom_site_fract_occupancy
 F  F1  1  0.94322  0.25000  0.16094  1
 F  F2  1  0.66124  0.75000  0.44363  1
 F  F3  1  0.33876  0.25000  0.55637  1
 F  F4  1  0.33481  0.75000  0.53238  1
 F  F5  1  0.96789  0.75000  0.16541  1
 F  F6  1  0.05678  0.75000  0.83906  1
 F  F7  1  0.70102  0.49509  0.79884  1
 F  F8  1  0.29898  0.99509  0.20116  1
 F  F9  1  0.66519  0.25000  0.46762  1
 F  F10  1  0.03211  0.25000  0.83459  1
 F  F11  1  0.50352  0.25000  0.99599  1
 F  F12  1  0.49648  0.75000  0.00401  1
 F  F13  1  0.29898  0.50491  0.20116  1
 F  F14  1  0.70102  0.00491  0.79884  1
 Mn  Mn1  1  0.69167  0.75000  0.80862  1
 Mn  Mn2  1  0.30833  0.25000  0.19138  1
 Rb  Rb1  1  0.00000  0.00000  0.50000  1
 Rb  Rb2  1  0.00000  0.50000  0.50000  1
 Zr  Zr1  1  0.30904  0.75000  0.19127  1
 Zr  Zr2  1  0.69096  0.25000  0.80873  1
