CIF file written using JARVIS-Tools package.
data_Ba5Re3BrO15
_symmetry_space_group_name_H-M  'P6_3cm'
_cell_length_a       11.0892
_cell_length_b       11.0892
_cell_length_c       7.85486
_cell_angle_alpha    90
_cell_angle_beta     90
_cell_angle_gamma    120

_symmetry_Int_Tables_number  185
_chemical_formula_structural  Ba5Re3BrO15
_chemical_formula_sum  Ba0Re6Br2O30
_cell_volume  836.514535600296
_cell_formula_units_Z  2
loop_
  _symmetry_equiv_pos_site_id
 _symmetry_equiv_pos_as_xyz
 1  'x, y, z'
loop_
 _atom_site_type_symbol
 _atom_site_label
 _atom_site_symmetry_multiplicity
 _atom_site_fract_x
 _atom_site_fract_y
 _atom_site_fract_z
 _atom_site_fract_occupancy
 Ba  Ba1  1  0.00000  0.26524  0.74585  1
 Ba  Ba2  1  0.26524  0.00000  0.74585  1
 Ba  Ba3  1  0.33333  0.66667  0.50470  1
 Ba  Ba4  1  0.66667  0.33333  0.50470  1
 Ba  Ba5  1  0.73476  -0.00000  0.24585  1
 Ba  Ba6  1  -0.00000  0.73476  0.24585  1
 Ba  Ba7  1  0.73476  0.73476  0.74585  1
 Ba  Ba8  1  0.26524  0.26524  0.24585  1
 Ba  Ba9  1  0.33333  0.66667  0.00470  1
 Ba  Ba10  1  0.66667  0.33333  0.00470  1
 Br  Br1  1  0.00000  0.00000  0.47861  1
 Br  Br2  1  0.00000  0.00000  0.97861  1
 O  O1  1  0.86897  0.42134  0.75835  1
 O  O2  1  0.00000  0.29729  0.11665  1
 O  O3  1  0.44763  0.57866  0.75835  1
 O  O4  1  0.70271  -0.00000  0.61665  1
 O  O5  1  0.86771  0.61057  0.93912  1
 O  O6  1  0.44763  0.86897  0.25835  1
 O  O7  1  0.13229  0.74286  0.93912  1
 O  O8  1  0.38943  0.25714  0.93912  1
 O  O9  1  0.57866  0.44763  0.75835  1
 O  O10  1  0.29729  0.29729  0.61665  1
 O  O11  1  0.13103  0.57866  0.25835  1
 O  O12  1  0.74286  0.61057  0.43912  1
 O  O13  1  0.86771  0.25714  0.43912  1
 O  O14  1  0.61057  0.86771  0.93912  1
 O  O15  1  0.13103  0.55237  0.75835  1
 O  O16  1  0.42134  0.86897  0.75835  1
 O  O17  1  0.25714  0.86771  0.43912  1
 O  O18  1  0.55237  0.42134  0.25835  1
 O  O19  1  0.74286  0.13229  0.93912  1
 O  O20  1  0.29729  0.00000  0.11665  1
 O  O21  1  0.55237  0.13103  0.75835  1
 O  O22  1  -0.00000  0.70271  0.61665  1
 O  O23  1  0.38943  0.13229  0.43912  1
 O  O24  1  0.57866  0.13103  0.25835  1
 O  O25  1  0.13229  0.38943  0.43912  1
 O  O26  1  0.86897  0.44763  0.25835  1
 O  O27  1  0.61057  0.74286  0.43912  1
 O  O28  1  0.70271  0.70271  0.11665  1
 O  O29  1  0.42134  0.55237  0.25835  1
 O  O30  1  0.25714  0.38943  0.93912  1
 Re  Re1  1  0.39173  -0.00000  0.29766  1
 Re  Re2  1  0.60827  0.60827  0.29766  1
 Re  Re3  1  0.60827  0.00000  0.79766  1
 Re  Re4  1  0.39173  0.39173  0.79766  1
 Re  Re5  1  -0.00000  0.39173  0.29766  1
 Re  Re6  1  0.00000  0.60827  0.79766  1
