CIF file written using JARVIS-Tools package.
data_CoH3C6N6
_symmetry_space_group_name_H-M  'P-31m'
_cell_length_a       6.3373
_cell_length_b       6.3373
_cell_length_c       5.72121
_cell_angle_alpha    90
_cell_angle_beta     90
_cell_angle_gamma    120

_symmetry_Int_Tables_number  162
_chemical_formula_structural  CoH3C6N6
_chemical_formula_sum  CoH3C6N6
_cell_volume  198.98771606554698
_cell_formula_units_Z  1
loop_
  _symmetry_equiv_pos_site_id
 _symmetry_equiv_pos_as_xyz
 1  'x, y, z'
loop_
 _atom_site_type_symbol
 _atom_site_label
 _atom_site_symmetry_multiplicity
 _atom_site_fract_x
 _atom_site_fract_y
 _atom_site_fract_z
 _atom_site_fract_occupancy
 C  C1  1  -0.00000  0.23943  0.80737  1
 C  C2  1  0.23943  0.23943  0.19263  1
 C  C3  1  0.23943  -0.00000  0.80737  1
 C  C4  1  0.76057  0.00000  0.19263  1
 C  C5  1  0.00000  0.76057  0.19263  1
 C  C6  1  0.76057  0.76057  0.80737  1
 Co  Co1  1  0.00000  0.00000  0.00000  1
 H  H1  1  0.50000  -0.00000  0.50000  1
 H  H2  1  0.50000  0.50000  0.50000  1
 H  H3  1  -0.00000  0.50000  0.50000  1
 N  N1  1  0.38139  -0.00000  0.67874  1
 N  N2  1  0.61861  0.00000  0.32126  1
 N  N3  1  0.38139  0.38139  0.32126  1
 N  N4  1  0.61861  0.61861  0.67874  1
 N  N5  1  0.00000  0.61861  0.32126  1
 N  N6  1  -0.00000  0.38139  0.67874  1
