CIF file written using JARVIS-Tools package.
data_Re2SCl12
_symmetry_space_group_name_H-M  'P2_1/m'
_cell_length_a       8.27435
_cell_length_b       10.7297
_cell_length_c       8.44307
_cell_angle_alpha    90
_cell_angle_beta     94.8606
_cell_angle_gamma    90

_symmetry_Int_Tables_number  11
_chemical_formula_structural  Re2SCl12
_chemical_formula_sum  Re4S2Cl24
_cell_volume  746.8897097309191
_cell_formula_units_Z  2
loop_
  _symmetry_equiv_pos_site_id
 _symmetry_equiv_pos_as_xyz
 1  'x, y, z'
loop_
 _atom_site_type_symbol
 _atom_site_label
 _atom_site_symmetry_multiplicity
 _atom_site_fract_x
 _atom_site_fract_y
 _atom_site_fract_z
 _atom_site_fract_occupancy
 Cl  Cl1  1  0.66310  0.57580  0.59460  1
 Cl  Cl2  1  0.62194  0.90611  0.20942  1
 Cl  Cl3  1  0.18177  0.60105  0.08523  1
 Cl  Cl4  1  0.62419  0.25000  0.56196  1
 Cl  Cl5  1  0.37806  0.09389  0.79058  1
 Cl  Cl6  1  0.94822  0.09501  0.33743  1
 Cl  Cl7  1  0.37581  0.75000  0.43804  1
 Cl  Cl8  1  0.33690  0.42420  0.40540  1
 Cl  Cl9  1  0.81823  0.10105  0.91477  1
 Cl  Cl10  1  0.62194  0.59389  0.20942  1
 Cl  Cl11  1  0.59063  0.25000  0.13025  1
 Cl  Cl12  1  0.81823  0.39895  0.91477  1
 Cl  Cl13  1  0.66310  0.92420  0.59460  1
 Cl  Cl14  1  0.06089  0.25000  0.65652  1
 Cl  Cl15  1  0.05178  0.90499  0.66257  1
 Cl  Cl16  1  0.93911  0.75000  0.34348  1
 Cl  Cl17  1  0.37806  0.40611  0.79058  1
 Cl  Cl18  1  0.05178  0.59501  0.66257  1
 Cl  Cl19  1  0.18177  0.89895  0.08523  1
 Cl  Cl20  1  0.80617  0.75000  0.88518  1
 Cl  Cl21  1  0.33690  0.07580  0.40540  1
 Cl  Cl22  1  0.94822  0.40499  0.33743  1
 Cl  Cl23  1  0.40937  0.75000  0.86975  1
 Cl  Cl24  1  0.19383  0.25000  0.11482  1
 Re  Re1  1  0.35461  0.25000  0.60425  1
 Re  Re2  1  0.85405  0.75000  0.61339  1
 Re  Re3  1  0.64539  0.75000  0.39575  1
 Re  Re4  1  0.14595  0.25000  0.38661  1
 S  S1  1  0.17875  0.75000  0.93377  1
 S  S2  1  0.82125  0.25000  0.06623  1
