CIF file written using JARVIS-Tools package.
data_Tb3Al5O12
_symmetry_space_group_name_H-M  'Ia-3d'
_cell_length_a       10.4931
_cell_length_b       10.4931
_cell_length_c       10.4931
_cell_angle_alpha    109.471
_cell_angle_beta     109.471
_cell_angle_gamma    109.471

_symmetry_Int_Tables_number  230
_chemical_formula_structural  Tb3Al5O12
_chemical_formula_sum  Tb2Al20O48
_cell_volume  889.3876030758643
_cell_formula_units_Z  4
loop_
  _symmetry_equiv_pos_site_id
 _symmetry_equiv_pos_as_xyz
 1  'x, y, z'
loop_
 _atom_site_type_symbol
 _atom_site_label
 _atom_site_symmetry_multiplicity
 _atom_site_fract_x
 _atom_site_fract_y
 _atom_site_fract_z
 _atom_site_fract_occupancy
 Al  Al1  1  0.00000  0.50000  0.00000  1
 Al  Al2  1  0.50000  0.50000  0.50000  1
 Al  Al3  1  0.50000  0.50000  0.00000  1
 Al  Al4  1  0.50000  0.00000  0.50000  1
 Al  Al5  1  0.25000  0.62500  0.37500  1
 Al  Al6  1  0.50000  0.00000  0.00000  1
 Al  Al7  1  0.00000  0.00000  0.50000  1
 Al  Al8  1  0.62500  0.75000  0.37500  1
 Al  Al9  1  0.00000  0.00000  0.00000  1
 Al  Al10  1  0.37500  0.62500  0.75000  1
 Al  Al11  1  0.87500  0.25000  0.12500  1
 Al  Al12  1  0.12500  0.87500  0.25000  1
 Al  Al13  1  0.75000  0.37500  0.62500  1
 Al  Al14  1  0.87500  0.12500  0.75000  1
 Al  Al15  1  0.00000  0.50000  0.50000  1
 Al  Al16  1  0.12500  0.75000  0.87500  1
 Al  Al17  1  0.37500  0.25000  0.62500  1
 Al  Al18  1  0.75000  0.87500  0.12500  1
 Al  Al19  1  0.25000  0.12500  0.87500  1
 Al  Al20  1  0.62500  0.37500  0.25000  1
 O  O1  1  0.08158  0.69941  0.67961  1
 O  O2  1  0.61783  0.69941  0.51980  1
 O  O3  1  0.51980  0.40198  0.82039  1
 O  O4  1  0.51980  0.61783  0.69941  1
 O  O5  1  0.40198  0.08158  0.88217  1
 O  O6  1  0.32039  0.90198  0.01980  1
 O  O7  1  0.41842  0.09802  0.61783  1
 O  O8  1  0.58158  0.17961  0.19941  1
 O  O9  1  0.08158  0.88217  0.40198  1
 O  O10  1  0.88217  0.40198  0.08158  1
 O  O11  1  0.11783  0.59802  0.91842  1
 O  O12  1  0.82039  0.80059  0.41842  1
 O  O13  1  0.90198  0.01980  0.32039  1
 O  O14  1  0.32039  0.91842  0.30059  1
 O  O15  1  0.01980  0.19941  0.11783  1
 O  O16  1  0.69941  0.51980  0.61783  1
 O  O17  1  0.30059  0.48020  0.38217  1
 O  O18  1  0.91842  0.30059  0.32039  1
 O  O19  1  0.58158  0.90198  0.38217  1
 O  O20  1  0.38217  0.30059  0.48020  1
 O  O21  1  0.48020  0.38217  0.30059  1
 O  O22  1  0.59802  0.91842  0.11783  1
 O  O23  1  0.17961  0.19941  0.58158  1
 O  O24  1  0.01980  0.32039  0.90198  1
 O  O25  1  0.98020  0.80059  0.88217  1
 O  O26  1  0.80059  0.41842  0.82039  1
 O  O27  1  0.09802  0.98020  0.67961  1
 O  O28  1  0.19941  0.58158  0.17961  1
 O  O29  1  0.80059  0.88217  0.98020  1
 O  O30  1  0.90198  0.38217  0.58158  1
 O  O31  1  0.88217  0.98020  0.80059  1
 O  O32  1  0.67961  0.09802  0.98020  1
 O  O33  1  0.19941  0.11783  0.01980  1
 O  O34  1  0.41842  0.82039  0.80059  1
 O  O35  1  0.17961  0.48020  0.59802  1
 O  O36  1  0.30059  0.32039  0.91842  1
 O  O37  1  0.38217  0.58158  0.90198  1
 O  O38  1  0.59802  0.17961  0.48020  1
 O  O39  1  0.48020  0.59802  0.17961  1
 O  O40  1  0.11783  0.01980  0.19941  1
 O  O41  1  0.91842  0.11783  0.59802  1
 O  O42  1  0.09802  0.61783  0.41842  1
 O  O43  1  0.67961  0.08158  0.69941  1
 O  O44  1  0.40198  0.82039  0.51980  1
 O  O45  1  0.61783  0.41842  0.09802  1
 O  O46  1  0.69941  0.67961  0.08158  1
 O  O47  1  0.82039  0.51980  0.40198  1
 O  O48  1  0.98020  0.67961  0.09802  1
 Tb  Tb1  1  0.25000  0.87500  0.62500  1
 Tb  Tb2  1  0.87500  0.62500  0.25000  1
 Tb  Tb3  1  0.62500  0.87500  0.75000  1
 Tb  Tb4  1  0.87500  0.75000  0.62500  1
 Tb  Tb5  1  0.62500  0.25000  0.87500  1
 Tb  Tb6  1  0.37500  0.12500  0.25000  1
 Tb  Tb7  1  0.75000  0.12500  0.37500  1
 Tb  Tb8  1  0.12500  0.37500  0.75000  1
 Tb  Tb9  1  0.12500  0.25000  0.37500  1
 Tb  Tb10  1  0.75000  0.62500  0.87500  1
 Tb  Tb11  1  0.37500  0.75000  0.12500  1
 Tb  Tb12  1  0.25000  0.37500  0.12500  1
