CIF file written using JARVIS-Tools package.
data_TiGePd
_symmetry_space_group_name_H-M  'P-62m'
_cell_length_a       6.658
_cell_length_b       6.658
_cell_length_c       3.71011
_cell_angle_alpha    90
_cell_angle_beta     90
_cell_angle_gamma    120

_symmetry_Int_Tables_number  189
_chemical_formula_structural  TiGePd
_chemical_formula_sum  Ti3Ge3Pd3
_cell_volume  142.43149432099474
_cell_formula_units_Z  3
loop_
  _symmetry_equiv_pos_site_id
 _symmetry_equiv_pos_as_xyz
 1  'x, y, z'
loop_
 _atom_site_type_symbol
 _atom_site_label
 _atom_site_symmetry_multiplicity
 _atom_site_fract_x
 _atom_site_fract_y
 _atom_site_fract_z
 _atom_site_fract_occupancy
 Ge  Ge1  1  0.66667  0.33333  0.50000  1
 Ge  Ge2  1  0.00000  0.00000  0.00000  1
 Ge  Ge3  1  0.33333  0.66667  0.50000  1
 Pd  Pd1  1  0.73918  0.00000  0.50000  1
 Pd  Pd2  1  0.26082  0.26082  0.50000  1
 Pd  Pd3  1  0.00000  0.73918  0.50000  1
 Ti  Ti1  1  0.58856  0.58856  0.00000  1
 Ti  Ti2  1  -0.00000  0.41144  0.00000  1
 Ti  Ti3  1  0.41144  -0.00000  0.00000  1
