CIF file written using JARVIS-Tools package.
data_LiCoPO4
_symmetry_space_group_name_H-M  'Cmcm'
_cell_length_a       4.94857
_cell_length_b       4.94857
_cell_length_c       6.06835
_cell_angle_alpha    90
_cell_angle_beta     90
_cell_angle_gamma    67.6106

_symmetry_Int_Tables_number  63
_chemical_formula_structural  LiCoPO4
_chemical_formula_sum  Li2Co2P2O8
_cell_volume  137.40169631329348
_cell_formula_units_Z  2
loop_
  _symmetry_equiv_pos_site_id
 _symmetry_equiv_pos_as_xyz
 1  'x, y, z'
loop_
 _atom_site_type_symbol
 _atom_site_label
 _atom_site_symmetry_multiplicity
 _atom_site_fract_x
 _atom_site_fract_y
 _atom_site_fract_z
 _atom_site_fract_occupancy
 Co  Co1  1  0.00000  0.00000  0.50000  1
 Co  Co2  1  0.00000  0.00000  0.00000  1
 Li  Li1  1  0.33144  0.33144  0.75000  1
 Li  Li2  1  0.66856  0.66856  0.25000  1
 O  O1  1  0.24350  0.69485  0.25000  1
 O  O2  1  0.75650  0.30515  0.75000  1
 O  O3  1  0.24568  0.24568  0.45840  1
 O  O4  1  0.75432  0.75432  0.95840  1
 O  O5  1  0.24568  0.24568  0.04160  1
 O  O6  1  0.69485  0.24350  0.25000  1
 O  O7  1  0.75432  0.75432  0.54160  1
 O  O8  1  0.30515  0.75650  0.75000  1
 P  P1  1  0.35113  0.35113  0.25000  1
 P  P2  1  0.64887  0.64887  0.75000  1
