CIF file written using JARVIS-Tools package.
data_Te2I
_symmetry_space_group_name_H-M  'Pnma'
_cell_length_a       4.17783
_cell_length_b       13.9635
_cell_length_c       15.4616
_cell_angle_alpha    90
_cell_angle_beta     90
_cell_angle_gamma    90

_symmetry_Int_Tables_number  62
_chemical_formula_structural  Te2I
_chemical_formula_sum  Te6I8
_cell_volume  901.9893253775037
_cell_formula_units_Z  8
loop_
  _symmetry_equiv_pos_site_id
 _symmetry_equiv_pos_as_xyz
 1  'x, y, z'
loop_
 _atom_site_type_symbol
 _atom_site_label
 _atom_site_symmetry_multiplicity
 _atom_site_fract_x
 _atom_site_fract_y
 _atom_site_fract_z
 _atom_site_fract_occupancy
 I  I1  1  0.75000  0.12637  0.16096  1
 I  I2  1  0.75000  0.37363  0.66096  1
 I  I3  1  0.75000  0.10236  0.44533  1
 I  I4  1  0.25000  0.89764  0.55467  1
 I  I5  1  0.25000  0.60236  0.05467  1
 I  I6  1  0.75000  0.39764  0.94533  1
 I  I7  1  0.25000  0.87363  0.83904  1
 I  I8  1  0.25000  0.62637  0.33904  1
 Te  Te1  1  0.75000  0.41247  0.41413  1
 Te  Te2  1  0.75000  0.76754  0.07278  1
 Te  Te3  1  0.75000  0.73246  0.57278  1
 Te  Te4  1  0.25000  0.26754  0.42722  1
 Te  Te5  1  0.25000  0.23246  0.92722  1
 Te  Te6  1  0.25000  0.58753  0.58587  1
 Te  Te7  1  0.75000  0.43728  0.21832  1
 Te  Te8  1  0.75000  0.06272  0.71832  1
 Te  Te9  1  0.25000  0.93728  0.28168  1
 Te  Te10  1  0.25000  0.56272  0.78168  1
 Te  Te11  1  0.25000  0.20128  0.68508  1
 Te  Te12  1  0.75000  0.79872  0.31492  1
 Te  Te13  1  0.75000  0.70128  0.81492  1
 Te  Te14  1  0.25000  0.29872  0.18508  1
 Te  Te15  1  0.25000  0.91247  0.08587  1
 Te  Te16  1  0.75000  0.08753  0.91413  1
