CIF file written using JARVIS-Tools package.
data_U7Te12
_symmetry_space_group_name_H-M  'P-6'
_cell_length_a       12.4344
_cell_length_b       12.4344
_cell_length_c       4.20092
_cell_angle_alpha    90
_cell_angle_beta     90
_cell_angle_gamma    120

_symmetry_Int_Tables_number  174
_chemical_formula_structural  U7Te12
_chemical_formula_sum  U7Te2
_cell_volume  562.5054467147806
_cell_formula_units_Z  1
loop_
  _symmetry_equiv_pos_site_id
 _symmetry_equiv_pos_as_xyz
 1  'x, y, z'
loop_
 _atom_site_type_symbol
 _atom_site_label
 _atom_site_symmetry_multiplicity
 _atom_site_fract_x
 _atom_site_fract_y
 _atom_site_fract_z
 _atom_site_fract_occupancy
 Te  Te1  1  0.78882  0.00301  0.50000  1
 Te  Te2  1  0.24811  0.99231  0.00000  1
 Te  Te3  1  0.00769  0.25580  0.00000  1
 Te  Te4  1  0.86096  0.38519  0.50000  1
 Te  Te5  1  0.13611  0.62759  0.00000  1
 Te  Te6  1  0.74420  0.75189  0.00000  1
 Te  Te7  1  0.49147  0.86389  0.00000  1
 Te  Te8  1  0.61481  0.47578  0.50000  1
 Te  Te9  1  0.37241  0.50853  0.00000  1
 Te  Te10  1  0.52422  0.13904  0.50000  1
 Te  Te11  1  0.99699  0.78581  0.50000  1
 Te  Te12  1  0.21419  0.21118  0.50000  1
 U  U1  1  0.00000  0.00000  0.00000  1
 U  U2  1  0.54882  0.70900  0.50000  1
 U  U3  1  0.16018  0.45118  0.50000  1
 U  U4  1  0.29100  0.83982  0.50000  1
 U  U5  1  0.72281  0.15511  0.00000  1
 U  U6  1  0.43231  0.27719  0.00000  1
 U  U7  1  0.84489  0.56769  0.00000  1
