CIF file written using JARVIS-Tools package.
data_Lu6UO12
_symmetry_space_group_name_H-M  'R-3'
_cell_length_a       6.41216
_cell_length_b       6.41216
_cell_length_c       6.41216
_cell_angle_alpha    99.2554
_cell_angle_beta     99.2553
_cell_angle_gamma    99.2553

_symmetry_Int_Tables_number  148
_chemical_formula_structural  Lu6UO12
_chemical_formula_sum  Lu6UO2
_cell_volume  252.0592625051356
_cell_formula_units_Z  1
loop_
  _symmetry_equiv_pos_site_id
 _symmetry_equiv_pos_as_xyz
 1  'x, y, z'
loop_
 _atom_site_type_symbol
 _atom_site_label
 _atom_site_symmetry_multiplicity
 _atom_site_fract_x
 _atom_site_fract_y
 _atom_site_fract_z
 _atom_site_fract_occupancy
 Lu  Lu1  1  0.60916  0.14544  0.32618  1
 Lu  Lu2  1  0.32618  0.60916  0.14544  1
 Lu  Lu3  1  0.85456  0.67382  0.39084  1
 Lu  Lu4  1  0.39084  0.85456  0.67382  1
 Lu  Lu5  1  0.67382  0.39084  0.85456  1
 Lu  Lu6  1  0.14544  0.32618  0.60916  1
 O  O1  1  0.17783  0.58480  0.42293  1
 O  O2  1  0.58480  0.42293  0.17783  1
 O  O3  1  0.57707  0.82217  0.41520  1
 O  O4  1  0.82217  0.41520  0.57707  1
 O  O5  1  0.41520  0.57707  0.82217  1
 O  O6  1  0.42293  0.17783  0.58480  1
 O  O7  1  0.31433  0.94989  0.08580  1
 O  O8  1  0.08580  0.31433  0.94989  1
 O  O9  1  0.68567  0.05011  0.91420  1
 O  O10  1  0.91420  0.68567  0.05011  1
 O  O11  1  0.05011  0.91420  0.68567  1
 O  O12  1  0.94989  0.08580  0.31433  1
 U  U1  1  0.00000  0.00000  0.00000  1
