CIF file written using JARVIS-Tools package.
data_Na8SnSb4
_symmetry_space_group_name_H-M  'Fd-3m'
_cell_length_a       10.4801
_cell_length_b       10.4801
_cell_length_c       10.4801
_cell_angle_alpha    60
_cell_angle_beta     60
_cell_angle_gamma    60

_symmetry_Int_Tables_number  227
_chemical_formula_structural  Na8SnSb4
_chemical_formula_sum  Na6Sn2Sb8
_cell_volume  813.9136089812042
_cell_formula_units_Z  2
loop_
  _symmetry_equiv_pos_site_id
 _symmetry_equiv_pos_as_xyz
 1  'x, y, z'
loop_
 _atom_site_type_symbol
 _atom_site_label
 _atom_site_symmetry_multiplicity
 _atom_site_fract_x
 _atom_site_fract_y
 _atom_site_fract_z
 _atom_site_fract_occupancy
 Na  Na1  1  0.00000  0.00000  0.00000  1
 Na  Na2  1  0.00000  0.00000  0.50000  1
 Na  Na3  1  0.50000  0.00000  -0.00000  1
 Na  Na4  1  0.00000  0.50000  -0.00000  1
 Na  Na5  1  0.60319  0.14681  0.14681  1
 Na  Na6  1  0.85319  0.85319  0.39681  1
 Na  Na7  1  0.39681  0.39681  0.85319  1
 Na  Na8  1  0.60319  0.60319  0.14681  1
 Na  Na9  1  0.85319  0.39681  0.39681  1
 Na  Na10  1  0.39681  0.85319  0.39681  1
 Na  Na11  1  0.14681  0.60319  0.14681  1
 Na  Na12  1  0.14681  0.14681  0.60319  1
 Na  Na13  1  0.60319  0.14681  0.60319  1
 Na  Na14  1  0.39681  0.85319  0.85319  1
 Na  Na15  1  0.14681  0.60319  0.60319  1
 Na  Na16  1  0.85319  0.39681  0.85319  1
 Sb  Sb1  1  0.23743  0.23743  0.78772  1
 Sb  Sb2  1  0.23743  0.78772  0.23743  1
 Sb  Sb3  1  0.78772  0.23743  0.23743  1
 Sb  Sb4  1  0.76257  0.21228  0.76257  1
 Sb  Sb5  1  0.23743  0.23743  0.23743  1
 Sb  Sb6  1  0.76257  0.76257  0.21228  1
 Sb  Sb7  1  0.76257  0.76257  0.76257  1
 Sb  Sb8  1  0.21228  0.76257  0.76257  1
 Sn  Sn1  1  0.87500  0.87500  0.87500  1
 Sn  Sn2  1  0.12500  0.12500  0.12500  1
