CIF file written using JARVIS-Tools package.
data_Te2Br
_symmetry_space_group_name_H-M  'Pnma'
_cell_length_a       4.07211
_cell_length_b       13.2448
_cell_length_c       15.0206
_cell_angle_alpha    90
_cell_angle_beta     90
_cell_angle_gamma    90

_symmetry_Int_Tables_number  62
_chemical_formula_structural  Te2Br
_chemical_formula_sum  Te6Br8
_cell_volume  810.1273346809529
_cell_formula_units_Z  8
loop_
  _symmetry_equiv_pos_site_id
 _symmetry_equiv_pos_as_xyz
 1  'x, y, z'
loop_
 _atom_site_type_symbol
 _atom_site_label
 _atom_site_symmetry_multiplicity
 _atom_site_fract_x
 _atom_site_fract_y
 _atom_site_fract_z
 _atom_site_fract_occupancy
 Br  Br1  1  0.75000  0.39826  0.94376  1
 Br  Br2  1  0.75000  0.10174  0.44376  1
 Br  Br3  1  0.75000  0.37727  0.66470  1
 Br  Br4  1  0.25000  0.62273  0.33530  1
 Br  Br5  1  0.25000  0.87727  0.83530  1
 Br  Br6  1  0.75000  0.12273  0.16470  1
 Br  Br7  1  0.25000  0.60174  0.05624  1
 Br  Br8  1  0.25000  0.89826  0.55624  1
 Te  Te1  1  0.25000  0.29380  0.18070  1
 Te  Te2  1  0.25000  0.94228  0.29230  1
 Te  Te3  1  0.25000  0.55772  0.79230  1
 Te  Te4  1  0.75000  0.44228  0.20770  1
 Te  Te5  1  0.75000  0.05772  0.70770  1
 Te  Te6  1  0.75000  0.70620  0.81930  1
 Te  Te7  1  0.75000  0.08282  0.91285  1
 Te  Te8  1  0.75000  0.41718  0.41285  1
 Te  Te9  1  0.25000  0.58282  0.58715  1
 Te  Te10  1  0.25000  0.91718  0.08715  1
 Te  Te11  1  0.25000  0.26392  0.42590  1
 Te  Te12  1  0.75000  0.73608  0.57410  1
 Te  Te13  1  0.75000  0.76392  0.07410  1
 Te  Te14  1  0.25000  0.23608  0.92590  1
 Te  Te15  1  0.75000  0.79380  0.31930  1
 Te  Te16  1  0.25000  0.20620  0.68070  1
