CIF file written using JARVIS-Tools package.
data_BiI
_symmetry_space_group_name_H-M  'C2/m'
_cell_length_a       4.42588
_cell_length_b       7.64693
_cell_length_c       20.2403
_cell_angle_alpha    92.0471
_cell_angle_beta     90
_cell_angle_gamma    106.821

_symmetry_Int_Tables_number  12
_chemical_formula_structural  BiI
_chemical_formula_sum  Bi8I8
_cell_volume  655.253749265601
_cell_formula_units_Z  8
loop_
  _symmetry_equiv_pos_site_id
 _symmetry_equiv_pos_as_xyz
 1  'x, y, z'
loop_
 _atom_site_type_symbol
 _atom_site_label
 _atom_site_symmetry_multiplicity
 _atom_site_fract_x
 _atom_site_fract_y
 _atom_site_fract_z
 _atom_site_fract_occupancy
 Bi  Bi1  1  0.74568  0.49135  0.39335  1
 Bi  Bi2  1  0.25432  0.50865  0.60665  1
 Bi  Bi3  1  -0.00462  -0.00925  0.89569  1
 Bi  Bi4  1  0.00462  0.00925  0.10431  1
 Bi  Bi5  1  0.30118  0.60236  0.75727  1
 Bi  Bi6  1  0.69882  0.39764  0.24273  1
 Bi  Bi7  1  0.94468  0.88936  0.74569  1
 Bi  Bi8  1  0.05532  0.11064  0.25431  1
 I  I1  1  0.60934  0.21868  0.63431  1
 I  I2  1  0.39066  0.78132  0.36569  1
 I  I3  1  0.89117  0.78234  0.55994  1
 I  I4  1  0.10883  0.21766  0.44006  1
 I  I5  1  0.63413  0.26827  0.85240  1
 I  I6  1  0.36587  0.73173  0.14760  1
 I  I7  1  0.35847  0.71693  0.94216  1
 I  I8  1  0.64153  0.28307  0.05784  1
