CIF file written using JARVIS-Tools package.
data_P
_symmetry_space_group_name_H-M  'P-1'
_cell_length_a       5.50426
_cell_length_b       10.8159
_cell_length_c       10.9097
_cell_angle_alpha    94.9814
_cell_angle_beta     98.9337
_cell_angle_gamma    100.567

_symmetry_Int_Tables_number  2
_chemical_formula_structural  P
_chemical_formula_sum  P24
_cell_volume  626.267559462
_cell_formula_units_Z  24
loop_
  _symmetry_equiv_pos_site_id
 _symmetry_equiv_pos_as_xyz
 1  'x, y, z'
loop_
 _atom_site_type_symbol
 _atom_site_label
 _atom_site_symmetry_multiplicity
 _atom_site_fract_x
 _atom_site_fract_y
 _atom_site_fract_z
 _atom_site_fract_occupancy
 P  P1  1  0.08447  -0.00895  0.17303  1
 P  P2  1  0.91553  0.00895  0.82697  1
 P  P3  1  0.82696  0.94724  0.30824  1
 P  P4  1  0.17304  0.05276  0.69176  1
 P  P5  1  0.00914  0.14680  0.30016  1
 P  P6  1  -0.00914  0.85320  0.69984  1
 P  P7  1  0.23734  0.01281  0.37615  1
 P  P8  1  0.76266  0.98719  0.62385  1
 P  P9  1  0.77416  0.37863  0.05660  1
 P  P10  1  0.22584  0.62137  0.94340  1
 P  P11  1  0.58407  0.17704  0.04344  1
 P  P12  1  0.41593  0.82296  0.95656  1
 P  P13  1  0.50687  0.32044  0.18373  1
 P  P14  1  0.49313  0.67956  0.81627  1
 P  P15  1  0.36523  0.32056  0.98192  1
 P  P16  1  0.63477  0.67944  0.01808  1
 P  P17  1  0.30662  0.69985  0.47573  1
 P  P18  1  0.69338  0.30015  0.52427  1
 P  P19  1  0.92065  0.63427  0.36700  1
 P  P20  1  0.07935  0.36573  0.63300  1
 P  P21  1  0.19838  0.50918  0.36573  1
 P  P22  1  0.80162  0.49082  0.63427  1
 P  P23  1  0.24357  0.68185  0.26824  1
 P  P24  1  0.75643  0.31815  0.73176  1
