CIF file written using JARVIS-Tools package.
data_Te3SeO8
_symmetry_space_group_name_H-M  'P-1'
_cell_length_a       4.93781
_cell_length_b       6.87735
_cell_length_c       11.6153
_cell_angle_alpha    77.4141
_cell_angle_beta     78.5197
_cell_angle_gamma    69.6152

_symmetry_Int_Tables_number  2
_chemical_formula_structural  Te3SeO8
_chemical_formula_sum  Te6Se2O6
_cell_volume  357.5737396523534
_cell_formula_units_Z  2
loop_
  _symmetry_equiv_pos_site_id
 _symmetry_equiv_pos_as_xyz
 1  'x, y, z'
loop_
 _atom_site_type_symbol
 _atom_site_label
 _atom_site_symmetry_multiplicity
 _atom_site_fract_x
 _atom_site_fract_y
 _atom_site_fract_z
 _atom_site_fract_occupancy
 O  O1  1  0.83415  0.31621  0.31820  1
 O  O2  1  0.49216  0.70784  0.19148  1
 O  O3  1  0.18553  0.63562  0.93746  1
 O  O4  1  0.81447  0.36438  0.06254  1
 O  O5  1  0.59457  0.77983  0.78604  1
 O  O6  1  0.40543  0.22017  0.21396  1
 O  O7  1  0.63864  0.31164  0.55910  1
 O  O8  1  0.36136  0.68836  0.44090  1
 O  O9  1  0.74215  0.96922  0.43602  1
 O  O10  1  0.25785  0.03078  0.56398  1
 O  O11  1  0.50784  0.29216  0.80852  1
 O  O12  1  0.00700  0.36170  0.67198  1
 O  O13  1  0.16585  0.68379  0.68180  1
 O  O14  1  0.92801  0.94655  0.13815  1
 O  O15  1  0.07199  0.05345  0.86185  1
 O  O16  1  0.99300  0.63830  0.32802  1
 Se  Se1  1  0.35246  0.82785  0.91381  1
 Se  Se2  1  0.64754  0.17215  0.08619  1
 Te  Te1  1  0.85487  0.12886  0.69897  1
 Te  Te2  1  0.50672  0.73990  0.57014  1
 Te  Te3  1  0.49328  0.26010  0.42986  1
 Te  Te4  1  0.10238  0.46233  0.80968  1
 Te  Te5  1  0.89762  0.53767  0.19032  1
 Te  Te6  1  0.14513  0.87114  0.30103  1
