CIF file written using JARVIS-Tools package.
data_Sr6Li2Cr2N8O
_symmetry_space_group_name_H-M  'P-1'
_cell_length_a       6.16204
_cell_length_b       6.85332
_cell_length_c       7.51235
_cell_angle_alpha    82.4002
_cell_angle_beta     75.118
_cell_angle_gamma    70.1418

_symmetry_Int_Tables_number  2
_chemical_formula_structural  Sr6Li2Cr2N8O
_chemical_formula_sum  Sr6Li2Cr2N8O
_cell_volume  288.0225059627341
_cell_formula_units_Z  1
loop_
  _symmetry_equiv_pos_site_id
 _symmetry_equiv_pos_as_xyz
 1  'x, y, z'
loop_
 _atom_site_type_symbol
 _atom_site_label
 _atom_site_symmetry_multiplicity
 _atom_site_fract_x
 _atom_site_fract_y
 _atom_site_fract_z
 _atom_site_fract_occupancy
 Cr  Cr1  1  0.78748  0.78712  0.24961  1
 Cr  Cr2  1  0.21252  0.21288  0.75039  1
 Li  Li1  1  0.22679  0.50997  0.90822  1
 Li  Li2  1  0.77321  0.49003  0.09178  1
 N  N1  1  0.46719  0.98990  0.73513  1
 N  N2  1  0.28693  0.43155  0.64359  1
 N  N3  1  0.92310  0.74381  0.01681  1
 N  N4  1  0.71307  0.56845  0.35641  1
 N  N5  1  0.98596  0.81883  0.36589  1
 N  N6  1  0.07690  0.25619  0.98319  1
 N  N7  1  0.01404  0.18117  0.63411  1
 N  N8  1  0.53281  0.01010  0.26487  1
 O  O1  1  0.50000  0.50000  -0.00000  1
 Sr  Sr1  1  0.70641  0.13529  0.92828  1
 Sr  Sr2  1  0.29904  0.81131  0.53519  1
 Sr  Sr3  1  0.70096  0.18869  0.46481  1
 Sr  Sr4  1  0.29359  0.86471  0.07172  1
 Sr  Sr5  1  0.80006  0.62063  0.69927  1
 Sr  Sr6  1  0.19994  0.37937  0.30073  1
