CIF file written using JARVIS-Tools package.
data_P2Se5
_symmetry_space_group_name_H-M  'P2_1/c'
_cell_length_a       5.75915
_cell_length_b       20.3765
_cell_length_c       7.00005
_cell_angle_alpha    90
_cell_angle_beta     113.57
_cell_angle_gamma    90

_symmetry_Int_Tables_number  14
_chemical_formula_structural  P2Se5
_chemical_formula_sum  P8Se20
_cell_volume  752.9283426815322
_cell_formula_units_Z  4
loop_
  _symmetry_equiv_pos_site_id
 _symmetry_equiv_pos_as_xyz
 1  'x, y, z'
loop_
 _atom_site_type_symbol
 _atom_site_label
 _atom_site_symmetry_multiplicity
 _atom_site_fract_x
 _atom_site_fract_y
 _atom_site_fract_z
 _atom_site_fract_occupancy
 P  P1  1  0.72711  0.66611  0.73165  1
 P  P2  1  0.77289  0.16611  0.26835  1
 P  P3  1  0.27289  0.33389  0.26835  1
 P  P4  1  0.22711  0.83389  0.73165  1
 P  P5  1  0.29896  0.54591  0.72389  1
 P  P6  1  0.20104  0.04591  0.27611  1
 P  P7  1  0.70104  0.45409  0.27611  1
 P  P8  1  0.79896  0.95409  0.72389  1
 Se  Se1  1  0.93090  0.39342  0.56549  1
 Se  Se2  1  0.30049  0.44678  0.26779  1
 Se  Se3  1  0.06910  0.60658  0.43451  1
 Se  Se4  1  0.36701  0.69320  0.44522  1
 Se  Se5  1  0.63299  0.30680  0.55478  1
 Se  Se6  1  0.13299  0.19320  0.55478  1
 Se  Se7  1  0.56910  0.89342  0.43451  1
 Se  Se8  1  0.86701  0.80680  0.44522  1
 Se  Se9  1  0.43090  0.10658  0.56549  1
 Se  Se10  1  0.69951  0.55322  0.73221  1
 Se  Se11  1  0.36562  0.30757  -0.01239  1
 Se  Se12  1  0.65558  0.39505  -0.01495  1
 Se  Se13  1  0.34442  0.60495  0.01495  1
 Se  Se14  1  0.13438  0.80757  0.01239  1
 Se  Se15  1  0.80049  0.05322  0.26779  1
 Se  Se16  1  0.86562  0.19243  -0.01239  1
 Se  Se17  1  0.63438  0.69243  0.01239  1
 Se  Se18  1  0.84442  0.89505  0.01495  1
 Se  Se19  1  0.15558  0.10495  -0.01495  1
 Se  Se20  1  0.19951  0.94678  0.73221  1
