CIF file written using JARVIS-Tools package.
data_CeSi3Ru
_symmetry_space_group_name_H-M  'I4mm'
_cell_length_a       4.21578
_cell_length_b       4.21579
_cell_length_c       5.81331
_cell_angle_alpha    111.26
_cell_angle_beta     111.26
_cell_angle_gamma    90

_symmetry_Int_Tables_number  107
_chemical_formula_structural  CeSi3Ru
_chemical_formula_sum  CeSi3Ru
_cell_volume  88.7008287956102
_cell_formula_units_Z  1
loop_
  _symmetry_equiv_pos_site_id
 _symmetry_equiv_pos_as_xyz
 1  'x, y, z'
loop_
 _atom_site_type_symbol
 _atom_site_label
 _atom_site_symmetry_multiplicity
 _atom_site_fract_x
 _atom_site_fract_y
 _atom_site_fract_z
 _atom_site_fract_occupancy
 Ce  Ce1  1  0.57424  0.57424  0.14848  1
 Ru  Ru1  1  0.23503  0.23503  0.47007  1
 Si  Si1  1  0.84256  0.34256  0.68512  1
 Si  Si2  1  0.34256  0.84256  0.68512  1
 Si  Si3  1  0.00066  0.00066  0.00133  1
