CIF file written using JARVIS-Tools package.
data_ZrPb3F10
_symmetry_space_group_name_H-M  'Cmcm'
_cell_length_a       6.04051
_cell_length_b       8.32045
_cell_length_c       8.32045
_cell_angle_alpha    100.826
_cell_angle_beta     90
_cell_angle_gamma    90

_symmetry_Int_Tables_number  63
_chemical_formula_structural  ZrPb3F10
_chemical_formula_sum  Zr2Pb6F20
_cell_volume  410.74115494091825
_cell_formula_units_Z  2
loop_
  _symmetry_equiv_pos_site_id
 _symmetry_equiv_pos_as_xyz
 1  'x, y, z'
loop_
 _atom_site_type_symbol
 _atom_site_label
 _atom_site_symmetry_multiplicity
 _atom_site_fract_x
 _atom_site_fract_y
 _atom_site_fract_z
 _atom_site_fract_occupancy
 F  F1  1  0.03810  0.15291  0.60457  1
 F  F2  1  0.25000  0.92258  0.74185  1
 F  F3  1  0.25000  0.25815  0.07742  1
 F  F4  1  0.75000  0.74185  0.92258  1
 F  F5  1  0.54572  0.10097  0.89903  1
 F  F6  1  0.04572  0.89903  0.10097  1
 F  F7  1  0.45428  0.89903  0.10097  1
 F  F8  1  0.95428  0.10097  0.89903  1
 F  F9  1  0.00000  0.36372  0.36372  1
 F  F10  1  0.50000  0.63628  0.63628  1
 F  F11  1  0.00000  0.63628  0.63628  1
 F  F12  1  0.50000  0.36372  0.36372  1
 F  F13  1  0.75000  0.07742  0.25815  1
 F  F14  1  0.46190  0.39543  0.84709  1
 F  F15  1  0.53810  0.84709  0.39543  1
 F  F16  1  0.03810  0.39543  0.84709  1
 F  F17  1  0.53810  0.60457  0.15291  1
 F  F18  1  0.96190  0.84709  0.39543  1
 F  F19  1  0.46190  0.15291  0.60457  1
 F  F20  1  0.96190  0.60457  0.15291  1
 Pb  Pb1  1  0.25000  0.61130  0.38870  1
 Pb  Pb2  1  0.75000  0.89128  0.67828  1
 Pb  Pb3  1  0.25000  0.10872  0.32172  1
 Pb  Pb4  1  0.25000  0.67828  0.89128  1
 Pb  Pb5  1  0.75000  0.32172  0.10872  1
 Pb  Pb6  1  0.75000  0.38870  0.61130  1
 Zr  Zr1  1  0.25000  0.18180  0.81820  1
 Zr  Zr2  1  0.75000  0.81820  0.18180  1
