CIF file written using JARVIS-Tools package.
data_Ga3Os
_symmetry_space_group_name_H-M  'P4_2/mnm'
_cell_length_a       6.55147
_cell_length_b       6.55147
_cell_length_c       6.85275
_cell_angle_alpha    90
_cell_angle_beta     90
_cell_angle_gamma    90

_symmetry_Int_Tables_number  136
_chemical_formula_structural  Ga3Os
_chemical_formula_sum  Ga2Os4
_cell_volume  294.13196440966686
_cell_formula_units_Z  4
loop_
  _symmetry_equiv_pos_site_id
 _symmetry_equiv_pos_as_xyz
 1  'x, y, z'
loop_
 _atom_site_type_symbol
 _atom_site_label
 _atom_site_symmetry_multiplicity
 _atom_site_fract_x
 _atom_site_fract_y
 _atom_site_fract_z
 _atom_site_fract_occupancy
 Ga  Ga1  1  0.65449  0.34551  0.23470  1
 Ga  Ga2  1  0.65449  0.34551  0.76530  1
 Ga  Ga3  1  0.84551  0.84551  0.26530  1
 Ga  Ga4  1  0.15449  0.15449  0.26530  1
 Ga  Ga5  1  0.00000  0.50000  0.50000  1
 Ga  Ga6  1  0.50000  0.00000  0.00000  1
 Ga  Ga7  1  0.84551  0.84551  0.73470  1
 Ga  Ga8  1  0.34551  0.65449  0.23470  1
 Ga  Ga9  1  0.15449  0.15449  0.73470  1
 Ga  Ga10  1  0.50000  0.00000  0.50000  1
 Ga  Ga11  1  0.34551  0.65449  0.76530  1
 Ga  Ga12  1  0.00000  0.50000  0.00000  1
 Os  Os1  1  0.83895  0.16105  0.50000  1
 Os  Os2  1  0.66105  0.66105  0.00000  1
 Os  Os3  1  0.16105  0.83895  0.50000  1
 Os  Os4  1  0.33895  0.33895  0.00000  1
