CIF file written using JARVIS-Tools package.
data_NaVS2O8
_symmetry_space_group_name_H-M  'C2/m'
_cell_length_a       4.80361
_cell_length_b       4.8036
_cell_length_c       6.96774
_cell_angle_alpha    88.7294
_cell_angle_beta     88.7294
_cell_angle_gamma    65.9195

_symmetry_Int_Tables_number  12
_chemical_formula_structural  NaVS2O8
_chemical_formula_sum  NaVS2O8
_cell_volume  146.73431615059886
_cell_formula_units_Z  1
loop_
  _symmetry_equiv_pos_site_id
 _symmetry_equiv_pos_as_xyz
 1  'x, y, z'
loop_
 _atom_site_type_symbol
 _atom_site_label
 _atom_site_symmetry_multiplicity
 _atom_site_fract_x
 _atom_site_fract_y
 _atom_site_fract_z
 _atom_site_fract_occupancy
 Na  Na1  1  -0.00000  0.00000  0.50000  1
 O  O1  1  0.29790  0.76269  0.20669  1
 O  O2  1  0.71501  0.71501  0.41013  1
 O  O3  1  0.24200  0.24200  0.94122  1
 O  O4  1  0.28499  0.28499  0.58987  1
 O  O5  1  0.76269  0.29790  0.20669  1
 O  O6  1  0.75800  0.75800  0.05878  1
 O  O7  1  0.70210  0.23731  0.79331  1
 O  O8  1  0.23731  0.70210  0.79331  1
 S  S1  1  0.36080  0.36080  0.77477  1
 S  S2  1  0.63920  0.63920  0.22523  1
 V  V1  1  0.00000  0.00000  0.00000  1
