CIF file written using JARVIS-Tools package.
data_Hf3Zn3C
_symmetry_space_group_name_H-M  'Fd-3m'
_cell_length_a       8.55622
_cell_length_b       8.55622
_cell_length_c       8.55622
_cell_angle_alpha    60
_cell_angle_beta     60
_cell_angle_gamma    60

_symmetry_Int_Tables_number  227
_chemical_formula_structural  Hf3Zn3C
_chemical_formula_sum  Hf2Zn2C4
_cell_volume  442.92514144932636
_cell_formula_units_Z  4
loop_
  _symmetry_equiv_pos_site_id
 _symmetry_equiv_pos_as_xyz
 1  'x, y, z'
loop_
 _atom_site_type_symbol
 _atom_site_label
 _atom_site_symmetry_multiplicity
 _atom_site_fract_x
 _atom_site_fract_y
 _atom_site_fract_z
 _atom_site_fract_occupancy
 C  C1  1  0.62500  0.62500  0.62500  1
 C  C2  1  0.12500  0.62500  0.62500  1
 C  C3  1  0.62500  0.12500  0.62500  1
 C  C4  1  0.62500  0.62500  0.12500  1
 Hf  Hf1  1  0.93810  0.56190  0.93810  1
 Hf  Hf2  1  0.56190  0.56190  0.93810  1
 Hf  Hf3  1  0.56190  0.93810  0.56190  1
 Hf  Hf4  1  0.93810  0.56190  0.56190  1
 Hf  Hf5  1  0.56190  0.93810  0.93810  1
 Hf  Hf6  1  0.68810  0.31190  0.68810  1
 Hf  Hf7  1  0.68810  0.31190  0.31190  1
 Hf  Hf8  1  0.68810  0.68810  0.31190  1
 Hf  Hf9  1  0.31190  0.68810  0.31190  1
 Hf  Hf10  1  0.31190  0.68810  0.68810  1
 Hf  Hf11  1  0.31190  0.31190  0.68810  1
 Hf  Hf12  1  0.93810  0.93810  0.56190  1
 Zn  Zn1  1  0.91755  0.91755  0.24736  1
 Zn  Zn2  1  0.00264  0.33245  0.33245  1
 Zn  Zn3  1  0.33245  0.00264  0.33245  1
 Zn  Zn4  1  0.33245  0.33245  0.33245  1
 Zn  Zn5  1  0.33245  0.33245  0.00264  1
 Zn  Zn6  1  0.91755  0.24736  0.91755  1
 Zn  Zn7  1  0.62500  0.12500  0.12500  1
 Zn  Zn8  1  0.12500  0.12500  0.62500  1
 Zn  Zn9  1  0.12500  0.62500  0.12500  1
 Zn  Zn10  1  0.91755  0.91755  0.91755  1
 Zn  Zn11  1  0.24736  0.91755  0.91755  1
 Zn  Zn12  1  0.12500  0.12500  0.12500  1
