CIF file written using JARVIS-Tools package.
data_SmAgPb
_symmetry_space_group_name_H-M  'P6_3mc'
_cell_length_a       4.84031
_cell_length_b       4.84031
_cell_length_c       7.59761
_cell_angle_alpha    90
_cell_angle_beta     90
_cell_angle_gamma    120

_symmetry_Int_Tables_number  186
_chemical_formula_structural  SmAgPb
_chemical_formula_sum  Sm2Ag2Pb2
_cell_volume  154.1533747022746
_cell_formula_units_Z  2
loop_
  _symmetry_equiv_pos_site_id
 _symmetry_equiv_pos_as_xyz
 1  'x, y, z'
loop_
 _atom_site_type_symbol
 _atom_site_label
 _atom_site_symmetry_multiplicity
 _atom_site_fract_x
 _atom_site_fract_y
 _atom_site_fract_z
 _atom_site_fract_occupancy
 Ag  Ag1  1  0.33333  0.66667  0.81281  1
 Ag  Ag2  1  0.66667  0.33333  0.31281  1
 Pb  Pb1  1  0.66667  0.33333  0.71992  1
 Pb  Pb2  1  0.33333  0.66667  0.21992  1
 Sm  Sm1  1  0.00000  0.00000  0.00027  1
 Sm  Sm2  1  0.00000  0.00000  0.50027  1
