CIF file written using JARVIS-Tools package.
data_Ga2BiS4
_symmetry_space_group_name_H-M  'P4/nnc'
_cell_length_a       7.52673
_cell_length_b       7.52673
_cell_length_c       12.1793
_cell_angle_alpha    90
_cell_angle_beta     90
_cell_angle_gamma    90

_symmetry_Int_Tables_number  126
_chemical_formula_structural  Ga2BiS4
_chemical_formula_sum  Ga8Bi4S6
_cell_volume  689.9788177146542
_cell_formula_units_Z  4
loop_
  _symmetry_equiv_pos_site_id
 _symmetry_equiv_pos_as_xyz
 1  'x, y, z'
loop_
 _atom_site_type_symbol
 _atom_site_label
 _atom_site_symmetry_multiplicity
 _atom_site_fract_x
 _atom_site_fract_y
 _atom_site_fract_z
 _atom_site_fract_occupancy
 Bi  Bi1  1  0.50000  0.50000  0.63079  1
 Bi  Bi2  1  0.00000  0.00000  0.13079  1
 Bi  Bi3  1  0.50000  0.50000  0.36921  1
 Bi  Bi4  1  0.00000  0.00000  0.86921  1
 Ga  Ga1  1  0.50000  0.00000  0.25000  1
 Ga  Ga2  1  0.00000  0.50000  0.50000  1
 Ga  Ga3  1  0.00000  0.50000  0.25000  1
 Ga  Ga4  1  0.50000  0.00000  0.00000  1
 Ga  Ga5  1  0.50000  0.00000  0.50000  1
 Ga  Ga6  1  0.00000  0.50000  0.75000  1
 Ga  Ga7  1  0.00000  0.50000  0.00000  1
 Ga  Ga8  1  0.50000  0.00000  0.75000  1
 S  S1  1  0.65882  0.83162  0.87522  1
 S  S2  1  0.66838  0.15882  0.62478  1
 S  S3  1  0.34118  0.16838  0.87522  1
 S  S4  1  0.66838  0.84118  0.37522  1
 S  S5  1  0.83162  0.34118  0.87522  1
 S  S6  1  0.84118  0.66838  0.62478  1
 S  S7  1  0.33162  0.15882  0.37522  1
 S  S8  1  0.33162  0.84118  0.62478  1
 S  S9  1  0.15882  0.66838  0.37522  1
 S  S10  1  0.16838  0.34118  0.12478  1
 S  S11  1  0.15882  0.33162  0.62478  1
 S  S12  1  0.34118  0.83162  0.12478  1
 S  S13  1  0.84118  0.33162  0.37522  1
 S  S14  1  0.16838  0.65882  0.87522  1
 S  S15  1  0.83162  0.65882  0.12478  1
 S  S16  1  0.65882  0.16838  0.12478  1
