CIF file written using JARVIS-Tools package.
data_PSe
_symmetry_space_group_name_H-M  'P2_1/c'
_cell_length_a       11.1565
_cell_length_b       7.39331
_cell_length_c       11.5177
_cell_angle_alpha    90
_cell_angle_beta     116.135
_cell_angle_gamma    90

_symmetry_Int_Tables_number  14
_chemical_formula_structural  PSe
_chemical_formula_sum  P6Se6
_cell_volume  852.8870893390034
_cell_formula_units_Z  16
loop_
  _symmetry_equiv_pos_site_id
 _symmetry_equiv_pos_as_xyz
 1  'x, y, z'
loop_
 _atom_site_type_symbol
 _atom_site_label
 _atom_site_symmetry_multiplicity
 _atom_site_fract_x
 _atom_site_fract_y
 _atom_site_fract_z
 _atom_site_fract_occupancy
 P  P1  1  0.73568  0.99598  0.34570  1
 P  P2  1  0.26432  0.49598  0.15430  1
 P  P3  1  0.26432  0.00402  0.65430  1
 P  P4  1  0.73568  0.50402  0.84570  1
 P  P5  1  0.83142  0.80793  0.26041  1
 P  P6  1  0.16858  0.30793  0.23959  1
 P  P7  1  0.16858  0.19207  0.73959  1
 P  P8  1  0.82615  0.12708  0.69399  1
 P  P9  1  0.83142  0.69207  0.76041  1
 P  P10  1  0.33058  0.69504  0.44857  1
 P  P11  1  0.33058  0.80496  0.94857  1
 P  P12  1  0.66942  0.30496  0.55143  1
 P  P13  1  0.82615  0.37292  0.19399  1
 P  P14  1  0.17385  0.87292  0.30601  1
 P  P15  1  0.17385  0.62708  0.80601  1
 P  P16  1  0.66942  0.19504  0.05143  1
 Se  Se1  1  0.10237  0.78329  0.61213  1
 Se  Se2  1  0.67056  0.58170  0.19293  1
 Se  Se3  1  0.32944  0.08170  0.30707  1
 Se  Se4  1  0.32944  0.41830  0.80707  1
 Se  Se5  1  0.67056  0.91830  0.69293  1
 Se  Se6  1  0.19595  0.44931  0.42898  1
 Se  Se7  1  0.80405  0.94931  0.07102  1
 Se  Se8  1  0.44247  0.61123  0.33072  1
 Se  Se9  1  0.55753  0.11123  0.16928  1
 Se  Se10  1  0.44247  0.88877  0.83072  1
 Se  Se11  1  0.55753  0.38877  0.66928  1
 Se  Se12  1  0.89763  0.21671  0.38787  1
 Se  Se13  1  0.10237  0.71671  0.11213  1
 Se  Se14  1  0.19595  0.05069  0.92898  1
 Se  Se15  1  0.80405  0.55069  0.57102  1
 Se  Se16  1  0.89763  0.28329  0.88787  1
