CIF file written using JARVIS-Tools package.
data_ErSn3
_symmetry_space_group_name_H-M  'Pm-3m'
_cell_length_a       4.70165
_cell_length_b       4.70165
_cell_length_c       4.70165
_cell_angle_alpha    90
_cell_angle_beta     90
_cell_angle_gamma    90

_symmetry_Int_Tables_number  221
_chemical_formula_structural  ErSn3
_chemical_formula_sum  ErSn3
_cell_volume  103.93223735909284
_cell_formula_units_Z  1
loop_
  _symmetry_equiv_pos_site_id
 _symmetry_equiv_pos_as_xyz
 1  'x, y, z'
loop_
 _atom_site_type_symbol
 _atom_site_label
 _atom_site_symmetry_multiplicity
 _atom_site_fract_x
 _atom_site_fract_y
 _atom_site_fract_z
 _atom_site_fract_occupancy
 Er  Er1  1  0.00000  0.00000  0.00000  1
 Sn  Sn1  1  0.50000  0.00000  0.50000  1
 Sn  Sn2  1  0.00000  0.50000  0.50000  1
 Sn  Sn3  1  0.50000  0.50000  0.00000  1
