CIF file written using JARVIS-Tools package.
data_MnInBr3
_symmetry_space_group_name_H-M  'Pnma'
_cell_length_a       3.97739
_cell_length_b       9.40773
_cell_length_c       15.1924
_cell_angle_alpha    90
_cell_angle_beta     90
_cell_angle_gamma    90

_symmetry_Int_Tables_number  62
_chemical_formula_structural  MnInBr3
_chemical_formula_sum  Mn4In4Br2
_cell_volume  568.472210742618
_cell_formula_units_Z  4
loop_
  _symmetry_equiv_pos_site_id
 _symmetry_equiv_pos_as_xyz
 1  'x, y, z'
loop_
 _atom_site_type_symbol
 _atom_site_label
 _atom_site_symmetry_multiplicity
 _atom_site_fract_x
 _atom_site_fract_y
 _atom_site_fract_z
 _atom_site_fract_occupancy
 Br  Br1  1  0.75000  0.47601  0.10271  1
 Br  Br2  1  0.75000  0.97601  0.39729  1
 Br  Br3  1  0.25000  0.02399  0.60271  1
 Br  Br4  1  0.25000  0.77778  0.21085  1
 Br  Br5  1  0.75000  0.22222  0.78915  1
 Br  Br6  1  0.25000  0.27778  0.28915  1
 Br  Br7  1  0.75000  0.72222  0.71085  1
 Br  Br8  1  0.25000  0.17278  0.00372  1
 Br  Br9  1  0.75000  0.82722  0.99628  1
 Br  Br10  1  0.25000  0.67278  0.49628  1
 Br  Br11  1  0.75000  0.32722  0.50372  1
 Br  Br12  1  0.25000  0.52399  0.89729  1
 In  In1  1  0.75000  0.55006  0.32444  1
 In  In2  1  0.25000  0.44994  0.67556  1
 In  In3  1  0.25000  0.94994  0.82444  1
 In  In4  1  0.75000  0.05006  0.17556  1
 Mn  Mn1  1  0.75000  0.83781  0.55663  1
 Mn  Mn2  1  0.25000  0.16219  0.44337  1
 Mn  Mn3  1  0.75000  0.33781  0.94337  1
 Mn  Mn4  1  0.25000  0.66219  0.05663  1
