CIF file written using JARVIS-Tools package.
data_S3N2Cl2
_symmetry_space_group_name_H-M  'P2_1'
_cell_length_a       5.43695
_cell_length_b       8.6479
_cell_length_c       6.51591
_cell_angle_alpha    90
_cell_angle_beta     104.943
_cell_angle_gamma    90

_symmetry_Int_Tables_number  4
_chemical_formula_structural  S3N2Cl2
_chemical_formula_sum  S6N4Cl4
_cell_volume  296.00605670890627
_cell_formula_units_Z  2
loop_
  _symmetry_equiv_pos_site_id
 _symmetry_equiv_pos_as_xyz
 1  'x, y, z'
loop_
 _atom_site_type_symbol
 _atom_site_label
 _atom_site_symmetry_multiplicity
 _atom_site_fract_x
 _atom_site_fract_y
 _atom_site_fract_z
 _atom_site_fract_occupancy
 Cl  Cl1  1  0.49916  0.98947  0.40547  1
 Cl  Cl2  1  0.50084  0.48947  0.59453  1
 Cl  Cl3  1  0.89258  0.64741  0.28430  1
 Cl  Cl4  1  0.10742  0.14741  0.71570  1
 N  N1  1  0.24742  0.51412  0.98310  1
 N  N2  1  0.25456  0.80419  0.95835  1
 N  N3  1  0.74544  0.30419  0.04165  1
 N  N4  1  0.75258  0.01412  0.01690  1
 S  S1  1  0.67540  0.17217  0.87532  1
 S  S2  1  0.11753  0.77684  0.71241  1
 S  S3  1  0.15259  0.52300  0.73603  1
 S  S4  1  0.32460  0.67217  0.12468  1
 S  S5  1  0.84741  0.02300  0.26397  1
 S  S6  1  0.88247  0.27684  0.28759  1
