CIF file written using JARVIS-Tools package.
data_Tl3Ga9S13O2
_symmetry_space_group_name_H-M  'P-6'
_cell_length_a       9.66314
_cell_length_b       9.66314
_cell_length_c       7.4467
_cell_angle_alpha    90
_cell_angle_beta     90
_cell_angle_gamma    120

_symmetry_Int_Tables_number  174
_chemical_formula_structural  Tl3Ga9S13O2
_chemical_formula_sum  Tl3Ga9S3O2
_cell_volume  602.1865707720976
_cell_formula_units_Z  1
loop_
  _symmetry_equiv_pos_site_id
 _symmetry_equiv_pos_as_xyz
 1  'x, y, z'
loop_
 _atom_site_type_symbol
 _atom_site_label
 _atom_site_symmetry_multiplicity
 _atom_site_fract_x
 _atom_site_fract_y
 _atom_site_fract_z
 _atom_site_fract_occupancy
 Ga  Ga1  1  0.43977  0.24604  0.73446  1
 Ga  Ga2  1  0.80627  0.56023  0.73446  1
 Ga  Ga3  1  0.80627  0.56023  0.26554  1
 Ga  Ga4  1  0.07201  0.45433  0.00000  1
 Ga  Ga5  1  0.75396  0.19373  0.73446  1
 Ga  Ga6  1  0.38233  0.92799  0.00000  1
 Ga  Ga7  1  0.75396  0.19373  0.26554  1
 Ga  Ga8  1  0.43977  0.24604  0.26554  1
 Ga  Ga9  1  0.54567  0.61767  0.00000  1
 O  O1  1  0.66667  0.33333  0.73707  1
 O  O2  1  0.66667  0.33333  0.26293  1
 S  S1  1  0.29233  0.97627  0.25767  1
 S  S2  1  0.38112  0.33929  0.00000  1
 S  S3  1  0.97754  0.64051  0.50000  1
 S  S4  1  0.35949  0.33703  0.50000  1
 S  S5  1  0.68393  0.70767  0.25767  1
 S  S6  1  0.66071  0.04183  0.00000  1
 S  S7  1  0.66297  0.02246  0.50000  1
 S  S8  1  0.33333  0.66667  0.00000  1
 S  S9  1  0.02373  0.31607  0.25767  1
 S  S10  1  0.95817  0.61888  0.00000  1
 S  S11  1  0.02373  0.31607  0.74233  1
 S  S12  1  0.68393  0.70767  0.74233  1
 S  S13  1  0.29233  0.97627  0.74233  1
 Tl  Tl1  1  0.00000  0.00000  0.50000  1
 Tl  Tl2  1  0.00000  0.00000  0.00000  1
 Tl  Tl3  1  0.33333  0.66667  0.50000  1
