CIF file written using JARVIS-Tools package.
data_KNaThF6
_symmetry_space_group_name_H-M  'P-3'
_cell_length_a       6.32061
_cell_length_b       6.32061
_cell_length_c       7.86269
_cell_angle_alpha    90
_cell_angle_beta     90
_cell_angle_gamma    120

_symmetry_Int_Tables_number  147
_chemical_formula_structural  KNaThF6
_chemical_formula_sum  K2Na2Th2F2
_cell_volume  272.032063197747
_cell_formula_units_Z  2
loop_
  _symmetry_equiv_pos_site_id
 _symmetry_equiv_pos_as_xyz
 1  'x, y, z'
loop_
 _atom_site_type_symbol
 _atom_site_label
 _atom_site_symmetry_multiplicity
 _atom_site_fract_x
 _atom_site_fract_y
 _atom_site_fract_z
 _atom_site_fract_occupancy
 F  F1  1  0.69029  0.07761  0.90132  1
 F  F2  1  0.38065  0.27585  0.32686  1
 F  F3  1  0.30971  0.92239  0.09868  1
 F  F4  1  0.89520  0.61935  0.32686  1
 F  F5  1  0.92239  0.61268  0.90132  1
 F  F6  1  0.07761  0.38732  0.09868  1
 F  F7  1  0.61935  0.72415  0.67314  1
 F  F8  1  0.38732  0.30971  0.90132  1
 F  F9  1  0.10480  0.38065  0.67314  1
 F  F10  1  0.72415  0.10480  0.32686  1
 F  F11  1  0.61268  0.69029  0.09868  1
 F  F12  1  0.27585  0.89520  0.67314  1
 K  K1  1  0.66667  0.33333  0.60963  1
 K  K2  1  0.33333  0.66667  0.39037  1
 Na  Na1  1  0.00000  0.00000  0.76348  1
 Na  Na2  1  0.00000  0.00000  0.23652  1
 Th  Th1  1  0.33333  0.66667  0.87610  1
 Th  Th2  1  0.66667  0.33333  0.12390  1
