CIF file written using JARVIS-Tools package.
data_Nb3TeCl7
_symmetry_space_group_name_H-M  'P-3m1'
_cell_length_a       6.94334
_cell_length_b       6.94334
_cell_length_c       12.6557
_cell_angle_alpha    90
_cell_angle_beta     90
_cell_angle_gamma    120

_symmetry_Int_Tables_number  164
_chemical_formula_structural  Nb3TeCl7
_chemical_formula_sum  Nb6Te2Cl4
_cell_volume  528.3893147411032
_cell_formula_units_Z  2
loop_
  _symmetry_equiv_pos_site_id
 _symmetry_equiv_pos_as_xyz
 1  'x, y, z'
loop_
 _atom_site_type_symbol
 _atom_site_label
 _atom_site_symmetry_multiplicity
 _atom_site_fract_x
 _atom_site_fract_y
 _atom_site_fract_z
 _atom_site_fract_occupancy
 Cl  Cl1  1  0.33333  0.66667  0.13133  1
 Cl  Cl2  1  0.66937  0.83469  0.34246  1
 Cl  Cl3  1  0.16531  0.83469  0.34246  1
 Cl  Cl4  1  0.16732  0.33465  0.88519  1
 Cl  Cl5  1  0.83469  0.66937  0.65754  1
 Cl  Cl6  1  0.83469  0.16531  0.65754  1
 Cl  Cl7  1  0.16531  0.33063  0.34246  1
 Cl  Cl8  1  0.33465  0.16732  0.11481  1
 Cl  Cl9  1  0.83268  0.16732  0.11481  1
 Cl  Cl10  1  0.66667  0.33333  0.86867  1
 Cl  Cl11  1  0.83268  0.66535  0.11481  1
 Cl  Cl12  1  0.66535  0.83268  0.88519  1
 Cl  Cl13  1  0.16732  0.83268  0.88519  1
 Cl  Cl14  1  0.33063  0.16531  0.65754  1
 Nb  Nb1  1  0.47333  0.94666  0.75960  1
 Nb  Nb2  1  0.52667  0.05334  0.24040  1
 Nb  Nb3  1  0.52667  0.47333  0.24040  1
 Nb  Nb4  1  0.94666  0.47333  0.24040  1
 Nb  Nb5  1  0.47333  0.52667  0.75960  1
 Nb  Nb6  1  0.05334  0.52667  0.75960  1
 Te  Te1  1  0.66667  0.33333  0.41070  1
 Te  Te2  1  0.33333  0.66667  0.58930  1
