CIF file written using JARVIS-Tools package.
data_Mg3P2O8
_symmetry_space_group_name_H-M  'P2_1/c'
_cell_length_a       5.11791
_cell_length_b       8.24947
_cell_length_c       8.88237
_cell_angle_alpha    90
_cell_angle_beta     121.083
_cell_angle_gamma    90

_symmetry_Int_Tables_number  14
_chemical_formula_structural  Mg3P2O8
_chemical_formula_sum  Mg6P4O6
_cell_volume  321.1684457193779
_cell_formula_units_Z  2
loop_
  _symmetry_equiv_pos_site_id
 _symmetry_equiv_pos_as_xyz
 1  'x, y, z'
loop_
 _atom_site_type_symbol
 _atom_site_label
 _atom_site_symmetry_multiplicity
 _atom_site_fract_x
 _atom_site_fract_y
 _atom_site_fract_z
 _atom_site_fract_occupancy
 Mg  Mg1  1  0.51105  0.85722  0.60761  1
 Mg  Mg2  1  0.48895  0.35722  0.89239  1
 Mg  Mg3  1  0.48895  0.14278  0.39239  1
 Mg  Mg4  1  0.51105  0.64278  0.10761  1
 Mg  Mg5  1  0.50000  0.50000  0.50000  1
 Mg  Mg6  1  0.50000  0.00000  0.00000  1
 O  O1  1  0.30591  0.57519  0.85427  1
 O  O2  1  0.69409  0.07519  0.64573  1
 O  O3  1  0.81435  0.80090  0.12234  1
 O  O4  1  0.30591  0.92481  0.35427  1
 O  O5  1  0.31564  0.86501  0.75936  1
 O  O6  1  0.68436  0.36501  0.74064  1
 O  O7  1  0.69409  0.42481  0.14573  1
 O  O8  1  0.31564  0.63499  0.25936  1
 O  O9  1  0.18565  0.19910  0.87766  1
 O  O10  1  0.76341  0.14484  0.94340  1
 O  O11  1  0.76341  0.35516  0.44340  1
 O  O12  1  0.68436  0.13499  0.24064  1
 O  O13  1  0.23659  0.64484  0.55660  1
 O  O14  1  0.81435  0.69910  0.62234  1
 O  O15  1  0.23659  0.85516  0.05660  1
 O  O16  1  0.18565  0.30090  0.37766  1
 P  P1  1  0.83918  0.30471  0.30241  1
 P  P2  1  0.16082  0.80471  0.19759  1
 P  P3  1  0.83918  0.19529  0.80241  1
 P  P4  1  0.16082  0.69529  0.69759  1
