CIF file written using JARVIS-Tools package.
data_TlInSiS4
_symmetry_space_group_name_H-M  'Pnma'
_cell_length_a       7.54093
_cell_length_b       11.9417
_cell_length_c       16.7799
_cell_angle_alpha    90
_cell_angle_beta     90
_cell_angle_gamma    90

_symmetry_Int_Tables_number  62
_chemical_formula_structural  TlInSiS4
_chemical_formula_sum  Tl8In8Si8S32
_cell_volume  1511.0640697227598
_cell_formula_units_Z  8
loop_
  _symmetry_equiv_pos_site_id
 _symmetry_equiv_pos_as_xyz
 1  'x, y, z'
loop_
 _atom_site_type_symbol
 _atom_site_label
 _atom_site_symmetry_multiplicity
 _atom_site_fract_x
 _atom_site_fract_y
 _atom_site_fract_z
 _atom_site_fract_occupancy
 In  In1  1  0.99270  0.22203  0.34807  1
 In  In2  1  0.99270  0.27797  0.84807  1
 In  In3  1  0.49270  0.72203  0.15193  1
 In  In4  1  0.00730  0.77797  0.65193  1
 In  In5  1  0.50730  0.22203  0.34807  1
 In  In6  1  0.49270  0.77797  0.65193  1
 In  In7  1  0.50730  0.27797  0.84807  1
 In  In8  1  0.00730  0.72203  0.15193  1
 S  S1  1  0.51159  0.36620  0.45756  1
 S  S2  1  0.51350  0.15270  0.72622  1
 S  S3  1  0.25000  0.09970  0.35720  1
 S  S4  1  0.75000  0.14155  0.54811  1
 S  S5  1  0.51350  0.34730  0.22622  1
 S  S6  1  0.75000  0.11394  0.13728  1
 S  S7  1  0.75000  0.38606  0.63728  1
 S  S8  1  0.25000  0.40030  0.85720  1
 S  S9  1  0.48841  0.63380  0.54244  1
 S  S10  1  0.75000  0.90030  0.64280  1
 S  S11  1  0.75000  0.59970  0.14280  1
 S  S12  1  0.25000  0.91273  0.65816  1
 S  S13  1  0.48650  0.65270  0.77378  1
 S  S14  1  0.98650  0.15270  0.72622  1
 S  S15  1  0.01159  0.63380  0.54244  1
 S  S16  1  0.98841  0.13380  0.95756  1
 S  S17  1  0.75000  0.35845  0.04811  1
 S  S18  1  0.48841  0.86620  0.04244  1
 S  S19  1  0.25000  0.58727  0.15816  1
 S  S20  1  0.25000  0.88606  0.86272  1
 S  S21  1  0.75000  0.08727  0.34184  1
 S  S22  1  0.01159  0.86620  0.04244  1
 S  S23  1  0.25000  0.64155  0.95189  1
 S  S24  1  0.25000  0.61394  0.36272  1
 S  S25  1  0.25000  0.85845  0.45189  1
 S  S26  1  0.01350  0.65270  0.77378  1
 S  S27  1  0.48650  0.84730  0.27378  1
 S  S28  1  0.51159  0.13380  0.95756  1
 S  S29  1  0.75000  0.41273  0.84184  1
 S  S30  1  0.98650  0.34730  0.22622  1
 S  S31  1  0.01350  0.84730  0.27378  1
 S  S32  1  0.98841  0.36620  0.45756  1
 Si  Si1  1  0.25000  0.70849  0.83140  1
 Si  Si2  1  0.75000  0.29151  0.16860  1
 Si  Si3  1  0.25000  0.81912  0.98314  1
 Si  Si4  1  0.25000  0.68088  0.48314  1
 Si  Si5  1  0.25000  0.79151  0.33140  1
 Si  Si6  1  0.75000  0.20849  0.66860  1
 Si  Si7  1  0.75000  0.18088  0.01686  1
 Si  Si8  1  0.75000  0.31912  0.51686  1
 Tl  Tl1  1  0.75000  0.53422  0.33119  1
 Tl  Tl2  1  0.75000  0.86291  0.43853  1
 Tl  Tl3  1  0.75000  0.63709  0.93853  1
 Tl  Tl4  1  0.75000  0.96578  0.83119  1
 Tl  Tl5  1  0.25000  0.13709  0.56147  1
 Tl  Tl6  1  0.25000  0.46578  0.66881  1
 Tl  Tl7  1  0.25000  0.03422  0.16881  1
 Tl  Tl8  1  0.25000  0.36291  0.06147  1
