CIF file written using JARVIS-Tools package.
data_SrCeI4
_symmetry_space_group_name_H-M  'C2/c'
_cell_length_a       7.37689
_cell_length_b       8.57623
_cell_length_c       8.99167
_cell_angle_alpha    113.494
_cell_angle_beta     108.61
_cell_angle_gamma    100.989

_symmetry_Int_Tables_number  15
_chemical_formula_structural  SrCeI4
_chemical_formula_sum  Sr2Ce2I8
_cell_volume  460.18054510396234
_cell_formula_units_Z  2
loop_
  _symmetry_equiv_pos_site_id
 _symmetry_equiv_pos_as_xyz
 1  'x, y, z'
loop_
 _atom_site_type_symbol
 _atom_site_label
 _atom_site_symmetry_multiplicity
 _atom_site_fract_x
 _atom_site_fract_y
 _atom_site_fract_z
 _atom_site_fract_occupancy
 Ce  Ce1  1  0.74982  0.49981  -0.00038  1
 Ce  Ce2  1  0.25018  0.50019  0.00038  1
 I  I1  1  0.99176  0.25838  0.12612  1
 I  I2  1  0.20742  0.80072  0.35623  1
 I  I3  1  0.64874  0.55544  0.35620  1
 I  I4  1  0.35126  0.44456  0.64380  1
 I  I5  1  0.36570  0.13231  0.87391  1
 I  I6  1  0.79258  0.19928  0.64377  1
 I  I7  1  0.63430  0.86769  0.12609  1
 I  I8  1  0.00824  0.74162  0.87388  1
 Sr  Sr1  1  0.38565  0.13565  0.27133  1
 Sr  Sr2  1  0.61435  0.86435  0.72867  1
