CIF file written using JARVIS-Tools package.
data_K2TiSi3O9
_symmetry_space_group_name_H-M  'R3'
_cell_length_a       7.63829
_cell_length_b       7.6383
_cell_length_c       7.6383
_cell_angle_alpha    82.6231
_cell_angle_beta     82.6231
_cell_angle_gamma    82.6232

_symmetry_Int_Tables_number  146
_chemical_formula_structural  K2TiSi3O9
_chemical_formula_sum  K4Ti2Si6O8
_cell_volume  435.4517059151456
_cell_formula_units_Z  2
loop_
  _symmetry_equiv_pos_site_id
 _symmetry_equiv_pos_as_xyz
 1  'x, y, z'
loop_
 _atom_site_type_symbol
 _atom_site_label
 _atom_site_symmetry_multiplicity
 _atom_site_fract_x
 _atom_site_fract_y
 _atom_site_fract_z
 _atom_site_fract_occupancy
 K  K1  1  0.77490  0.22225  0.99106  1
 K  K2  1  0.99106  0.77490  0.22225  1
 K  K3  1  0.22225  0.99106  0.77490  1
 K  K4  1  0.50113  0.50113  0.50113  1
 O  O1  1  0.10505  0.31752  0.00572  1
 O  O2  1  0.16215  0.47989  0.67607  1
 O  O3  1  0.34395  0.12053  0.43086  1
 O  O4  1  0.94953  0.24685  0.62795  1
 O  O5  1  0.62795  0.94953  0.24685  1
 O  O6  1  0.84666  0.59074  0.55092  1
 O  O7  1  0.91131  0.63186  0.90636  1
 O  O8  1  0.47989  0.67607  0.16215  1
 O  O9  1  0.59074  0.55092  0.84666  1
 O  O10  1  0.63186  0.90636  0.91131  1
 O  O11  1  0.55092  0.84666  0.59074  1
 O  O12  1  0.67607  0.16215  0.47989  1
 O  O13  1  0.43086  0.34395  0.12053  1
 O  O14  1  0.90636  0.91131  0.63186  1
 O  O15  1  0.00572  0.10505  0.31752  1
 O  O16  1  0.24685  0.62795  0.94953  1
 O  O17  1  0.12053  0.43086  0.34395  1
 O  O18  1  0.31752  0.00572  0.10505  1
 Si  Si1  1  0.10137  0.51129  0.88793  1
 Si  Si2  1  0.51129  0.88793  0.10137  1
 Si  Si3  1  0.88793  0.10137  0.51129  1
 Si  Si4  1  0.54238  0.01882  0.44184  1
 Si  Si5  1  0.01882  0.44184  0.54238  1
 Si  Si6  1  0.44184  0.54238  0.01882  1
 Ti  Ti1  1  0.74041  0.74041  0.74041  1
 Ti  Ti2  1  0.21905  0.21905  0.21905  1
