CIF file written using JARVIS-Tools package.
data_LiCaN
_symmetry_space_group_name_H-M  'Pnma'
_cell_length_a       3.63583
_cell_length_b       5.50712
_cell_length_c       8.46759
_cell_angle_alpha    90
_cell_angle_beta     90
_cell_angle_gamma    90

_symmetry_Int_Tables_number  62
_chemical_formula_structural  LiCaN
_chemical_formula_sum  Li4Ca4N4
_cell_volume  169.54630574590954
_cell_formula_units_Z  4
loop_
  _symmetry_equiv_pos_site_id
 _symmetry_equiv_pos_as_xyz
 1  'x, y, z'
loop_
 _atom_site_type_symbol
 _atom_site_label
 _atom_site_symmetry_multiplicity
 _atom_site_fract_x
 _atom_site_fract_y
 _atom_site_fract_z
 _atom_site_fract_occupancy
 Ca  Ca1  1  0.25000  0.47418  0.65647  1
 Ca  Ca2  1  0.75000  0.97418  0.84353  1
 Ca  Ca3  1  0.25000  0.02582  0.15647  1
 Ca  Ca4  1  0.75000  0.52582  0.34353  1
 Li  Li1  1  0.25000  0.57479  0.04648  1
 Li  Li2  1  0.75000  0.42521  0.95352  1
 Li  Li3  1  0.75000  0.07479  0.45352  1
 Li  Li4  1  0.25000  0.92521  0.54648  1
 N  N1  1  0.75000  0.73849  0.09182  1
 N  N2  1  0.75000  0.76151  0.59182  1
 N  N3  1  0.25000  0.26151  0.90818  1
 N  N4  1  0.25000  0.23849  0.40818  1
