CIF file written using JARVIS-Tools package.
data_Sc7C2Cl10
_symmetry_space_group_name_H-M  'C2/m'
_cell_length_a       3.49824
_cell_length_b       9.50457
_cell_length_c       11.8046
_cell_angle_alpha    99.9444
_cell_angle_beta     90
_cell_angle_gamma    100.605

_symmetry_Int_Tables_number  12
_chemical_formula_structural  Sc7C2Cl10
_chemical_formula_sum  Sc7C2Cl0
_cell_volume  379.7901381938021
_cell_formula_units_Z  1
loop_
  _symmetry_equiv_pos_site_id
 _symmetry_equiv_pos_as_xyz
 1  'x, y, z'
loop_
 _atom_site_type_symbol
 _atom_site_label
 _atom_site_symmetry_multiplicity
 _atom_site_fract_x
 _atom_site_fract_y
 _atom_site_fract_z
 _atom_site_fract_occupancy
 C  C1  1  0.73829  0.47658  0.62481  1
 C  C2  1  0.26171  0.52342  0.37519  1
 Cl  Cl1  1  0.07113  0.14226  0.62288  1
 Cl  Cl2  1  0.54525  0.09051  0.87426  1
 Cl  Cl3  1  0.45475  0.90949  0.12574  1
 Cl  Cl4  1  0.21212  0.42425  0.87453  1
 Cl  Cl5  1  0.78788  0.57575  0.12547  1
 Cl  Cl6  1  0.12439  0.24878  0.12927  1
 Cl  Cl7  1  0.40410  0.80820  0.61907  1
 Cl  Cl8  1  0.87561  0.75122  0.87073  1
 Cl  Cl9  1  0.59590  0.19180  0.38093  1
 Cl  Cl10  1  0.92887  0.85774  0.37712  1
 Sc  Sc1  1  0.34649  0.69299  0.26937  1
 Sc  Sc2  1  0.18072  0.36144  0.50582  1
 Sc  Sc3  1  0.81928  0.63856  0.49418  1
 Sc  Sc4  1  0.29908  0.59816  0.72451  1
 Sc  Sc5  1  0.70092  0.40184  0.27549  1
 Sc  Sc6  1  0.65351  0.30701  0.73063  1
 Sc  Sc7  1  0.00000  0.00000  0.00000  1
