CIF file written using JARVIS-Tools package.
data_Nb2Te6I
_symmetry_space_group_name_H-M  'P2_1/c'
_cell_length_a       9.31393
_cell_length_b       13.5595
_cell_length_c       9.76585
_cell_angle_alpha    90
_cell_angle_beta     112.362
_cell_angle_gamma    90

_symmetry_Int_Tables_number  14
_chemical_formula_structural  Nb2Te6I
_chemical_formula_sum  Nb8Te24I4
_cell_volume  1140.6022747327263
_cell_formula_units_Z  4
loop_
  _symmetry_equiv_pos_site_id
 _symmetry_equiv_pos_as_xyz
 1  'x, y, z'
loop_
 _atom_site_type_symbol
 _atom_site_label
 _atom_site_symmetry_multiplicity
 _atom_site_fract_x
 _atom_site_fract_y
 _atom_site_fract_z
 _atom_site_fract_occupancy
 I  I1  1  0.18702  0.58424  0.15434  1
 I  I2  1  0.18702  0.91576  0.65434  1
 I  I3  1  0.81298  0.08424  0.34566  1
 I  I4  1  0.81298  0.41576  0.84566  1
 Nb  Nb1  1  0.47579  0.52502  0.13180  1
 Nb  Nb2  1  0.52421  0.02502  0.36820  1
 Nb  Nb3  1  0.82468  0.99297  0.87059  1
 Nb  Nb4  1  0.47579  0.97498  0.63180  1
 Nb  Nb5  1  0.17532  0.49297  0.62941  1
 Nb  Nb6  1  0.17532  0.00703  0.12941  1
 Nb  Nb7  1  0.82468  0.50703  0.37059  1
 Nb  Nb8  1  0.52421  0.47498  0.86820  1
 Te  Te1  1  0.04418  0.66756  0.46722  1
 Te  Te2  1  0.75892  0.89804  0.58859  1
 Te  Te3  1  0.24108  0.39804  0.91141  1
 Te  Te4  1  0.24108  0.10196  0.41141  1
 Te  Te5  1  0.75892  0.60196  0.08859  1
 Te  Te6  1  0.62340  0.80726  0.77431  1
 Te  Te7  1  0.37660  0.30726  0.72569  1
 Te  Te8  1  0.37660  0.19274  0.22569  1
 Te  Te9  1  0.62340  0.69274  0.27431  1
 Te  Te10  1  0.04418  0.83244  0.96722  1
 Te  Te11  1  0.95582  0.16756  0.03278  1
 Te  Te12  1  0.91488  0.90961  0.16151  1
 Te  Te13  1  0.54513  0.43135  0.41130  1
 Te  Te14  1  0.08512  0.40961  0.33849  1
 Te  Te15  1  0.34866  0.64425  0.85902  1
 Te  Te16  1  0.65134  0.14425  0.64098  1
 Te  Te17  1  0.34866  0.85575  0.35902  1
 Te  Te18  1  0.45487  0.93135  0.08870  1
 Te  Te19  1  0.45487  0.56865  0.58870  1
 Te  Te20  1  0.54513  0.06865  0.91130  1
 Te  Te21  1  0.91488  0.59039  0.66151  1
 Te  Te22  1  0.08512  0.09039  0.83849  1
 Te  Te23  1  0.95582  0.33244  0.53278  1
 Te  Te24  1  0.65134  0.35575  0.14098  1
