CIF file written using JARVIS-Tools package.
data_TmSnAu
_symmetry_space_group_name_H-M  'P6_3mc'
_cell_length_a       4.6561
_cell_length_b       4.6561
_cell_length_c       7.4071
_cell_angle_alpha    90
_cell_angle_beta     90
_cell_angle_gamma    120

_symmetry_Int_Tables_number  186
_chemical_formula_structural  TmSnAu
_chemical_formula_sum  Tm2Sn2Au2
_cell_volume  139.0665283265005
_cell_formula_units_Z  2
loop_
  _symmetry_equiv_pos_site_id
 _symmetry_equiv_pos_as_xyz
 1  'x, y, z'
loop_
 _atom_site_type_symbol
 _atom_site_label
 _atom_site_symmetry_multiplicity
 _atom_site_fract_x
 _atom_site_fract_y
 _atom_site_fract_z
 _atom_site_fract_occupancy
 Au  Au1  1  0.66667  0.33333  0.81506  1
 Au  Au2  1  0.33333  0.66667  0.31506  1
 Sn  Sn1  1  0.33333  0.66667  0.70670  1
 Sn  Sn2  1  0.66667  0.33333  0.20670  1
 Tm  Tm1  1  0.00000  0.00000  0.47824  1
 Tm  Tm2  1  0.00000  0.00000  0.97824  1
