CIF file written using JARVIS-Tools package.
data_CoPO4
_symmetry_space_group_name_H-M  'Cmcm'
_cell_length_a       4.66979
_cell_length_b       4.66979
_cell_length_c       6.31416
_cell_angle_alpha    90
_cell_angle_beta     90
_cell_angle_gamma    68.8274

_symmetry_Int_Tables_number  63
_chemical_formula_structural  CoPO4
_chemical_formula_sum  Co2P2O8
_cell_volume  128.39790779376924
_cell_formula_units_Z  2
loop_
  _symmetry_equiv_pos_site_id
 _symmetry_equiv_pos_as_xyz
 1  'x, y, z'
loop_
 _atom_site_type_symbol
 _atom_site_label
 _atom_site_symmetry_multiplicity
 _atom_site_fract_x
 _atom_site_fract_y
 _atom_site_fract_z
 _atom_site_fract_occupancy
 Co  Co1  1  0.00000  0.00000  0.50000  1
 Co  Co2  1  0.00000  0.00000  0.00000  1
 O  O1  1  0.70954  0.22348  0.25000  1
 O  O2  1  0.76033  0.76033  0.54758  1
 O  O3  1  0.23967  0.23967  0.04758  1
 O  O4  1  0.23967  0.23967  0.45242  1
 O  O5  1  0.77652  0.29046  0.75000  1
 O  O6  1  0.29046  0.77652  0.75000  1
 O  O7  1  0.76033  0.76033  0.95242  1
 O  O8  1  0.22348  0.70954  0.25000  1
 P  P1  1  0.35130  0.35129  0.25000  1
 P  P2  1  0.64871  0.64870  0.75000  1
