CIF file written using JARVIS-Tools package.
data_SrThBr6
_symmetry_space_group_name_H-M  'Pmma'
_cell_length_a       4.40742
_cell_length_b       9.24777
_cell_length_c       11.7882
_cell_angle_alpha    90
_cell_angle_beta     90
_cell_angle_gamma    90

_symmetry_Int_Tables_number  51
_chemical_formula_structural  SrThBr6
_chemical_formula_sum  Sr2Th2Br2
_cell_volume  480.4726124303319
_cell_formula_units_Z  2
loop_
  _symmetry_equiv_pos_site_id
 _symmetry_equiv_pos_as_xyz
 1  'x, y, z'
loop_
 _atom_site_type_symbol
 _atom_site_label
 _atom_site_symmetry_multiplicity
 _atom_site_fract_x
 _atom_site_fract_y
 _atom_site_fract_z
 _atom_site_fract_occupancy
 Br  Br1  1  0.50000  0.56702  0.36391  1
 Br  Br2  1  0.50000  0.43298  0.63609  1
 Br  Br3  1  0.50000  0.06702  0.63609  1
 Br  Br4  1  0.50000  0.93298  0.36391  1
 Br  Br5  1  0.50000  0.75000  0.09132  1
 Br  Br6  1  0.50000  0.25000  0.90868  1
 Br  Br7  1  0.00000  0.75000  0.54799  1
 Br  Br8  1  0.00000  0.25000  0.45201  1
 Br  Br9  1  0.00000  0.54905  0.84838  1
 Br  Br10  1  0.00000  0.45095  0.15162  1
 Br  Br11  1  0.00000  0.04905  0.15162  1
 Br  Br12  1  0.00000  0.95095  0.84838  1
 Sr  Sr1  1  0.50000  0.75000  0.73812  1
 Sr  Sr2  1  0.50000  0.25000  0.26188  1
 Th  Th1  1  0.00000  0.75000  0.26589  1
 Th  Th2  1  0.00000  0.25000  0.73411  1
