CIF file written using JARVIS-Tools package.
data_Rb
_symmetry_space_group_name_H-M  'Cmce'
_cell_length_a       8.56341
_cell_length_b       8.56341
_cell_length_c       9.89974
_cell_angle_alpha    90
_cell_angle_beta     90
_cell_angle_gamma    109.377

_symmetry_Int_Tables_number  64
_chemical_formula_structural  Rb
_chemical_formula_sum  Rb8
_cell_volume  684.8452537023546
_cell_formula_units_Z  8
loop_
  _symmetry_equiv_pos_site_id
 _symmetry_equiv_pos_as_xyz
 1  'x, y, z'
loop_
 _atom_site_type_symbol
 _atom_site_label
 _atom_site_symmetry_multiplicity
 _atom_site_fract_x
 _atom_site_fract_y
 _atom_site_fract_z
 _atom_site_fract_occupancy
 Rb  Rb1  1  0.24998  0.75002  0.00000  1
 Rb  Rb2  1  0.25002  0.74998  0.50000  1
 Rb  Rb3  1  0.75002  0.24998  0.00000  1
 Rb  Rb4  1  0.74998  0.25002  0.50000  1
 Rb  Rb5  1  0.25062  0.25062  0.24944  1
 Rb  Rb6  1  0.24938  0.24938  0.74944  1
 Rb  Rb7  1  0.75062  0.75062  0.25056  1
 Rb  Rb8  1  0.74938  0.74938  0.75056  1
