CIF file written using JARVIS-Tools package.
data_Ta3Br7
_symmetry_space_group_name_H-M  'Cmce'
_cell_length_a       9.72131
_cell_length_b       9.7213
_cell_length_c       11.6362
_cell_angle_alpha    90
_cell_angle_beta     90
_cell_angle_gamma    93.5623

_symmetry_Int_Tables_number  64
_chemical_formula_structural  Ta3Br7
_chemical_formula_sum  Ta2Br28
_cell_volume  1097.53592140468
_cell_formula_units_Z  4
loop_
  _symmetry_equiv_pos_site_id
 _symmetry_equiv_pos_as_xyz
 1  'x, y, z'
loop_
 _atom_site_type_symbol
 _atom_site_label
 _atom_site_symmetry_multiplicity
 _atom_site_fract_x
 _atom_site_fract_y
 _atom_site_fract_z
 _atom_site_fract_occupancy
 Br  Br1  1  0.78024  0.02991  0.74780  1
 Br  Br2  1  0.39328  0.89328  0.75000  1
 Br  Br3  1  0.89328  0.39328  0.75000  1
 Br  Br4  1  0.60672  0.10672  0.25000  1
 Br  Br5  1  0.13795  0.38872  0.01347  1
 Br  Br6  1  0.36205  0.11128  0.51347  1
 Br  Br7  1  0.88872  0.63795  0.48653  1
 Br  Br8  1  0.61128  0.86205  0.98653  1
 Br  Br9  1  0.74378  0.25622  0.50000  1
 Br  Br10  1  0.24378  0.75622  0.00000  1
 Br  Br11  1  0.11128  0.36205  0.51347  1
 Br  Br12  1  0.38872  0.13795  0.01347  1
 Br  Br13  1  0.35887  0.35887  0.27039  1
 Br  Br14  1  0.14113  0.14113  0.77039  1
 Br  Br15  1  0.85887  0.85887  0.22961  1
 Br  Br16  1  0.64113  0.64113  0.72961  1
 Br  Br17  1  0.75622  0.24378  0.00000  1
 Br  Br18  1  0.86205  0.61128  0.98653  1
 Br  Br19  1  0.10672  0.60672  0.25000  1
 Br  Br20  1  0.25622  0.74378  0.50000  1
 Br  Br21  1  0.97009  0.21976  0.25220  1
 Br  Br22  1  0.52991  0.28024  0.75220  1
 Br  Br23  1  0.28024  0.52991  0.75220  1
 Br  Br24  1  0.21976  0.97009  0.25220  1
 Br  Br25  1  0.02991  0.78024  0.74780  1
 Br  Br26  1  0.47009  0.71976  0.24780  1
 Br  Br27  1  0.71976  0.47009  0.24780  1
 Br  Br28  1  0.63795  0.88872  0.48653  1
 Ta  Ta1  1  0.37408  0.37408  0.91102  1
 Ta  Ta2  1  0.87408  0.87408  0.58898  1
 Ta  Ta3  1  0.62592  0.62592  0.08898  1
 Ta  Ta4  1  0.33730  0.54660  0.10785  1
 Ta  Ta5  1  0.12592  0.12592  0.41102  1
 Ta  Ta6  1  0.83730  0.04660  0.39215  1
 Ta  Ta7  1  0.45340  0.66270  0.89215  1
 Ta  Ta8  1  0.66270  0.45340  0.89215  1
 Ta  Ta9  1  0.16270  0.95340  0.60785  1
 Ta  Ta10  1  0.95340  0.16270  0.60785  1
 Ta  Ta11  1  0.04660  0.83730  0.39215  1
 Ta  Ta12  1  0.54660  0.33730  0.10785  1
