CIF file written using JARVIS-Tools package.
data_Mn4Bi3NO15
_symmetry_space_group_name_H-M  'P312'
_cell_length_a       5.00984
_cell_length_b       5.00984
_cell_length_c       13.172
_cell_angle_alpha    90
_cell_angle_beta     90
_cell_angle_gamma    120

_symmetry_Int_Tables_number  149
_chemical_formula_structural  Mn4Bi3NO15
_chemical_formula_sum  Mn4Bi3NO5
_cell_volume  286.30633860055656
_cell_formula_units_Z  1
loop_
  _symmetry_equiv_pos_site_id
 _symmetry_equiv_pos_as_xyz
 1  'x, y, z'
loop_
 _atom_site_type_symbol
 _atom_site_label
 _atom_site_symmetry_multiplicity
 _atom_site_fract_x
 _atom_site_fract_y
 _atom_site_fract_z
 _atom_site_fract_occupancy
 Bi  Bi1  1  0.00000  0.00000  0.03270  1
 Bi  Bi2  1  0.00000  0.00000  0.38920  1
 Bi  Bi3  1  0.00000  0.00000  0.67619  1
 Mn  Mn1  1  0.66667  0.33333  0.21906  1
 Mn  Mn2  1  0.33333  0.66667  0.21860  1
 Mn  Mn3  1  0.33333  0.66667  0.84680  1
 Mn  Mn4  1  0.66667  0.33333  0.84634  1
 N  N1  1  0.33333  0.66667  0.53268  1
 O  O1  1  0.37607  0.37577  0.92334  1
 O  O2  1  0.04076  0.52026  0.53268  1
 O  O3  1  0.00072  0.63366  0.30246  1
 O  O4  1  0.62426  0.62396  0.14206  1
 O  O5  1  0.99970  0.62393  0.92334  1
 O  O6  1  0.62423  0.00030  0.92334  1
 O  O7  1  0.36632  0.99928  0.76294  1
 O  O8  1  0.63294  0.99928  0.30246  1
 O  O9  1  0.47974  0.52051  0.53268  1
 O  O10  1  0.00072  0.36704  0.76294  1
 O  O11  1  0.36634  0.36706  0.30246  1
 O  O12  1  0.63296  0.63368  0.76294  1
 O  O13  1  0.99970  0.37574  0.14206  1
 O  O14  1  0.37604  0.00030  0.14206  1
 O  O15  1  0.47949  0.95924  0.53268  1
