CIF file written using JARVIS-Tools package.
data_Zr6CCl14
_symmetry_space_group_name_H-M  'Cmce'
_cell_length_a       9.44672
_cell_length_b       9.44671
_cell_length_c       11.5276
_cell_angle_alpha    90
_cell_angle_beta     90
_cell_angle_gamma    96.3765

_symmetry_Int_Tables_number  64
_chemical_formula_structural  Zr6CCl14
_chemical_formula_sum  Zr2C2Cl28
_cell_volume  1022.3687380088614
_cell_formula_units_Z  2
loop_
  _symmetry_equiv_pos_site_id
 _symmetry_equiv_pos_as_xyz
 1  'x, y, z'
loop_
 _atom_site_type_symbol
 _atom_site_label
 _atom_site_symmetry_multiplicity
 _atom_site_fract_x
 _atom_site_fract_y
 _atom_site_fract_z
 _atom_site_fract_occupancy
 C  C1  1  0.00000  0.00000  0.50000  1
 C  C2  1  0.50000  0.50000  0.00000  1
 Cl  Cl1  1  0.65701  0.65701  0.73501  1
 Cl  Cl2  1  0.90640  0.40640  0.75000  1
 Cl  Cl3  1  0.59360  0.09360  0.25000  1
 Cl  Cl4  1  0.21377  0.96384  0.24931  1
 Cl  Cl5  1  0.12900  0.37929  0.00872  1
 Cl  Cl6  1  0.87929  0.62900  0.49128  1
 Cl  Cl7  1  0.62071  0.87100  0.99128  1
 Cl  Cl8  1  0.09360  0.59360  0.25000  1
 Cl  Cl9  1  0.87100  0.62071  0.99128  1
 Cl  Cl10  1  0.12071  0.37100  0.50872  1
 Cl  Cl11  1  0.40640  0.90640  0.75000  1
 Cl  Cl12  1  0.96384  0.21377  0.24931  1
 Cl  Cl13  1  0.53616  0.28623  0.74931  1
 Cl  Cl14  1  0.71377  0.46384  0.25069  1
 Cl  Cl15  1  0.78623  0.03616  0.75069  1
 Cl  Cl16  1  0.03616  0.78623  0.75069  1
 Cl  Cl17  1  0.46384  0.71377  0.25069  1
 Cl  Cl18  1  0.62900  0.87929  0.49128  1
 Cl  Cl19  1  0.15701  0.15701  0.76499  1
 Cl  Cl20  1  0.37929  0.12900  0.00872  1
 Cl  Cl21  1  0.37100  0.12071  0.50872  1
 Cl  Cl22  1  0.84299  0.84299  0.23501  1
 Cl  Cl23  1  0.24646  0.75354  0.00000  1
 Cl  Cl24  1  0.25354  0.74646  0.50000  1
 Cl  Cl25  1  0.75354  0.24646  0.00000  1
 Cl  Cl26  1  0.74646  0.25354  0.50000  1
 Cl  Cl27  1  0.28623  0.53616  0.74931  1
 Cl  Cl28  1  0.34299  0.34299  0.26499  1
 Zr  Zr1  1  0.18785  0.95390  0.61739  1
 Zr  Zr2  1  0.31215  0.54610  0.11739  1
 Zr  Zr3  1  0.54610  0.31215  0.11739  1
 Zr  Zr4  1  0.95390  0.18785  0.61739  1
 Zr  Zr5  1  0.81215  0.04610  0.38261  1
 Zr  Zr6  1  0.85124  0.85124  0.60742  1
 Zr  Zr7  1  0.35124  0.35124  0.89258  1
 Zr  Zr8  1  0.14876  0.14876  0.39258  1
 Zr  Zr9  1  0.64876  0.64876  0.10742  1
 Zr  Zr10  1  0.04610  0.81215  0.38261  1
 Zr  Zr11  1  0.68785  0.45390  0.88261  1
 Zr  Zr12  1  0.45390  0.68785  0.88261  1
