CIF file written using JARVIS-Tools package.
data_UBN
_symmetry_space_group_name_H-M  'Cmcm'
_cell_length_a       3.28971
_cell_length_b       3.6074
_cell_length_c       6.18402
_cell_angle_alpha    106.958
_cell_angle_beta     90
_cell_angle_gamma    90

_symmetry_Int_Tables_number  63
_chemical_formula_structural  UBN
_chemical_formula_sum  U2B2N2
_cell_volume  70.19644865684258
_cell_formula_units_Z  2
loop_
  _symmetry_equiv_pos_site_id
 _symmetry_equiv_pos_as_xyz
 1  'x, y, z'
loop_
 _atom_site_type_symbol
 _atom_site_label
 _atom_site_symmetry_multiplicity
 _atom_site_fract_x
 _atom_site_fract_y
 _atom_site_fract_z
 _atom_site_fract_occupancy
 B  B1  1  0.75000  0.46593  0.93185  1
 B  B2  1  0.25000  0.53407  0.06815  1
 N  N1  1  0.75000  0.33795  0.67591  1
 N  N2  1  0.25000  0.66205  0.32409  1
 U  U1  1  0.75000  0.13772  0.27544  1
 U  U2  1  0.25000  0.86228  0.72456  1
