CIF file written using JARVIS-Tools package.
data_BaAgO2
_symmetry_space_group_name_H-M  'P4/mmm'
_cell_length_a       3.69563
_cell_length_b       6.08627
_cell_length_c       6.08627
_cell_angle_alpha    89.9575
_cell_angle_beta     89.9958
_cell_angle_gamma    89.9958

_symmetry_Int_Tables_number  123
_chemical_formula_structural  BaAgO2
_chemical_formula_sum  Ba2Ag2O4
_cell_volume  136.8960418290139
_cell_formula_units_Z  2
loop_
  _symmetry_equiv_pos_site_id
 _symmetry_equiv_pos_as_xyz
 1  'x, y, z'
loop_
 _atom_site_type_symbol
 _atom_site_label
 _atom_site_symmetry_multiplicity
 _atom_site_fract_x
 _atom_site_fract_y
 _atom_site_fract_z
 _atom_site_fract_occupancy
 Ag  Ag1  1  0.50000  -0.00000  0.00000  1
 Ag  Ag2  1  0.50000  0.50000  0.50000  1
 Ba  Ba1  1  0.00000  0.50000  -0.00000  1
 Ba  Ba2  1  0.00000  0.00000  0.50000  1
 O  O1  1  0.50000  0.25001  0.74999  1
 O  O2  1  0.50000  0.74999  0.25001  1
 O  O3  1  0.50011  0.25000  0.25000  1
 O  O4  1  0.49989  0.75000  0.75000  1
