CIF file written using JARVIS-Tools package.
data_Ce2Sn5
_symmetry_space_group_name_H-M  'Cmmm'
_cell_length_a       4.62724
_cell_length_b       4.67652
_cell_length_c       17.5802
_cell_angle_alpha    90
_cell_angle_beta     97.5623
_cell_angle_gamma    90

_symmetry_Int_Tables_number  65
_chemical_formula_structural  Ce2Sn5
_chemical_formula_sum  Ce4Sn0
_cell_volume  377.1172110131762
_cell_formula_units_Z  2
loop_
  _symmetry_equiv_pos_site_id
 _symmetry_equiv_pos_as_xyz
 1  'x, y, z'
loop_
 _atom_site_type_symbol
 _atom_site_label
 _atom_site_symmetry_multiplicity
 _atom_site_fract_x
 _atom_site_fract_y
 _atom_site_fract_z
 _atom_site_fract_occupancy
 Ce  Ce1  1  0.56888  0.00000  0.13776  1
 Ce  Ce2  1  0.43112  0.00000  0.86224  1
 Ce  Ce3  1  0.70330  0.00000  0.40661  1
 Ce  Ce4  1  0.29670  0.00000  0.59339  1
 Sn  Sn1  1  0.00000  0.00000  0.00000  1
 Sn  Sn2  1  0.50000  0.50000  0.00000  1
 Sn  Sn3  1  0.86209  0.00000  0.72417  1
 Sn  Sn4  1  0.13791  0.00000  0.27583  1
 Sn  Sn5  1  0.63848  0.50000  0.27696  1
 Sn  Sn6  1  0.36152  0.50000  0.72304  1
 Sn  Sn7  1  0.92927  0.50000  0.85855  1
 Sn  Sn8  1  0.07073  0.50000  0.14145  1
 Sn  Sn9  1  0.78011  0.50000  0.56022  1
 Sn  Sn10  1  0.21989  0.50000  0.43978  1
