CIF file written using JARVIS-Tools package.
data_Rb2O
_symmetry_space_group_name_H-M  'R-3m'
_cell_length_a       4.77411
_cell_length_b       4.79159
_cell_length_c       4.77411
_cell_angle_alpha    119.879
_cell_angle_beta     60
_cell_angle_gamma    119.879

_symmetry_Int_Tables_number  166
_chemical_formula_structural  Rb2O
_chemical_formula_sum  Rb2O
_cell_volume  77.36380345175174
_cell_formula_units_Z  1
loop_
  _symmetry_equiv_pos_site_id
 _symmetry_equiv_pos_as_xyz
 1  'x, y, z'
loop_
 _atom_site_type_symbol
 _atom_site_label
 _atom_site_symmetry_multiplicity
 _atom_site_fract_x
 _atom_site_fract_y
 _atom_site_fract_z
 _atom_site_fract_occupancy
 O  O1  1  0.00000  0.00000  0.00000  1
 Rb  Rb1  1  0.24994  0.74982  0.24994  1
 Rb  Rb2  1  0.75006  0.25018  0.75006  1
