CIF file written using JARVIS-Tools package.
data_Li2CuO2
_symmetry_space_group_name_H-M  'C2/m'
_cell_length_a       3.4905
_cell_length_b       3.4905
_cell_length_c       5.27194
_cell_angle_alpha    78.1382
_cell_angle_beta     78.1381
_cell_angle_gamma    48.1998

_symmetry_Int_Tables_number  12
_chemical_formula_structural  Li2CuO2
_chemical_formula_sum  Li2CuO2
_cell_volume  46.65279808471261
_cell_formula_units_Z  1
loop_
  _symmetry_equiv_pos_site_id
 _symmetry_equiv_pos_as_xyz
 1  'x, y, z'
loop_
 _atom_site_type_symbol
 _atom_site_label
 _atom_site_symmetry_multiplicity
 _atom_site_fract_x
 _atom_site_fract_y
 _atom_site_fract_z
 _atom_site_fract_occupancy
 Cu  Cu1  1  0.50000  0.50000  -0.00000  1
 Li  Li1  1  0.82772  0.82772  0.64515  1
 Li  Li2  1  0.17228  0.17228  0.35485  1
 O  O1  1  0.89274  0.89274  0.25852  1
 O  O2  1  0.10726  0.10726  0.74148  1
