CIF file written using JARVIS-Tools package.
data_AgCl
_symmetry_space_group_name_H-M  'Cmcm'
_cell_length_a       3.77506
_cell_length_b       3.90098
_cell_length_c       5.87844
_cell_angle_alpha    90
_cell_angle_beta     108.729
_cell_angle_gamma    90

_symmetry_Int_Tables_number  63
_chemical_formula_structural  AgCl
_chemical_formula_sum  Ag2Cl2
_cell_volume  81.98428990951042
_cell_formula_units_Z  2
loop_
  _symmetry_equiv_pos_site_id
 _symmetry_equiv_pos_as_xyz
 1  'x, y, z'
loop_
 _atom_site_type_symbol
 _atom_site_label
 _atom_site_symmetry_multiplicity
 _atom_site_fract_x
 _atom_site_fract_y
 _atom_site_fract_z
 _atom_site_fract_occupancy
 Ag  Ag1  1  0.60334  0.25000  0.20668  1
 Ag  Ag2  1  0.39666  0.75000  0.79332  1
 Cl  Cl1  1  0.13551  0.75000  0.27102  1
 Cl  Cl2  1  0.86449  0.25000  0.72898  1
