CIF file written using JARVIS-Tools package.
data_FeOF
_symmetry_space_group_name_H-M  'Fddd'
_cell_length_a       4.92315
_cell_length_b       4.92316
_cell_length_c       5.60041
_cell_angle_alpha    112.742
_cell_angle_beta     112.741
_cell_angle_gamma    96.9199

_symmetry_Int_Tables_number  70
_chemical_formula_structural  FeOF
_chemical_formula_sum  Fe4O4F4
_cell_volume  109.48669044415436
_cell_formula_units_Z  4
loop_
  _symmetry_equiv_pos_site_id
 _symmetry_equiv_pos_as_xyz
 1  'x, y, z'
loop_
 _atom_site_type_symbol
 _atom_site_label
 _atom_site_symmetry_multiplicity
 _atom_site_fract_x
 _atom_site_fract_y
 _atom_site_fract_z
 _atom_site_fract_occupancy
 F  F1  1  0.50034  0.00135  0.49897  1
 F  F2  1  0.50057  0.50047  0.99823  1
 F  F3  1  0.99990  0.00092  0.49808  1
 F  F4  1  0.50088  0.00077  -0.00116  1
 Fe  Fe1  1  0.67565  0.82609  0.74860  1
 Fe  Fe2  1  0.92559  0.57603  0.24847  1
 Fe  Fe3  1  0.07569  0.42593  0.74847  1
 Fe  Fe4  1  0.32575  0.17599  0.24860  1
 O  O1  1  0.74202  0.49246  0.48131  1
 O  O2  1  0.00934  0.75958  0.01576  1
 O  O3  1  0.99212  0.24234  0.98130  1
 O  O4  1  0.25924  0.50968  0.51576  1
