CIF file written using JARVIS-Tools package.
data_NaAlMo2O8
_symmetry_space_group_name_H-M  'C2/c'
_cell_length_a       5.30036
_cell_length_b       5.52585
_cell_length_c       13.204
_cell_angle_alpha    90.38
_cell_angle_beta     90
_cell_angle_gamma    118.659

_symmetry_Int_Tables_number  15
_chemical_formula_structural  NaAlMo2O8
_chemical_formula_sum  Na2Al2Mo4O6
_cell_volume  339.3442043552226
_cell_formula_units_Z  2
loop_
  _symmetry_equiv_pos_site_id
 _symmetry_equiv_pos_as_xyz
 1  'x, y, z'
loop_
 _atom_site_type_symbol
 _atom_site_label
 _atom_site_symmetry_multiplicity
 _atom_site_fract_x
 _atom_site_fract_y
 _atom_site_fract_z
 _atom_site_fract_occupancy
 Al  Al1  1  0.00000  0.00000  0.00000  1
 Al  Al2  1  0.00000  0.00000  0.50000  1
 Mo  Mo1  1  0.63799  0.34456  0.62196  1
 Mo  Mo2  1  0.36201  0.65544  0.37804  1
 Mo  Mo3  1  0.70657  0.34456  0.12196  1
 Mo  Mo4  1  0.29343  0.65544  0.87804  1
 Na  Na1  1  0.92138  0.00000  0.75000  1
 Na  Na2  1  0.07862  0.00000  0.25000  1
 O  O1  1  0.74778  0.34134  0.74539  1
 O  O2  1  0.79363  0.18434  0.54683  1
 O  O3  1  0.39071  0.18434  0.04683  1
 O  O4  1  0.89342  0.14420  0.11387  1
 O  O5  1  0.20637  0.81566  0.45317  1
 O  O6  1  0.10658  0.85580  0.88613  1
 O  O7  1  0.07085  0.30765  0.91985  1
 O  O8  1  0.25222  0.65866  0.25461  1
 O  O9  1  0.40643  0.65866  0.75461  1
 O  O10  1  0.23680  0.30765  0.41985  1
 O  O11  1  0.59357  0.34134  0.24539  1
 O  O12  1  0.92915  0.69235  0.08015  1
 O  O13  1  0.60929  0.81566  0.95317  1
 O  O14  1  0.25078  0.14420  0.61387  1
 O  O15  1  0.74922  0.85580  0.38613  1
 O  O16  1  0.76320  0.69235  0.58015  1
