CIF file written using JARVIS-Tools package.
data_RbZrCdF7
_symmetry_space_group_name_H-M  'Cmcm'
_cell_length_a       6.54093
_cell_length_b       6.54093
_cell_length_c       8.57116
_cell_angle_alpha    90
_cell_angle_beta     90
_cell_angle_gamma    116.619

_symmetry_Int_Tables_number  63
_chemical_formula_structural  RbZrCdF7
_chemical_formula_sum  Rb2Zr2Cd2F4
_cell_volume  327.83703549610703
_cell_formula_units_Z  2
loop_
  _symmetry_equiv_pos_site_id
 _symmetry_equiv_pos_as_xyz
 1  'x, y, z'
loop_
 _atom_site_type_symbol
 _atom_site_label
 _atom_site_symmetry_multiplicity
 _atom_site_fract_x
 _atom_site_fract_y
 _atom_site_fract_z
 _atom_site_fract_occupancy
 Cd  Cd1  1  0.80770  0.19230  0.25000  1
 Cd  Cd2  1  0.19230  0.80770  0.75000  1
 F  F1  1  0.47298  0.17344  0.75000  1
 F  F2  1  0.79490  0.20510  0.51363  1
 F  F3  1  0.15449  0.43553  0.75000  1
 F  F4  1  0.56447  0.84551  0.75000  1
 F  F5  1  0.00972  0.99028  0.25000  1
 F  F6  1  0.17344  0.47298  0.25000  1
 F  F7  1  0.52702  0.82656  0.25000  1
 F  F8  1  0.43553  0.15449  0.25000  1
 F  F9  1  0.84551  0.56447  0.25000  1
 F  F10  1  0.79490  0.20510  0.98637  1
 F  F11  1  0.99028  0.00972  0.75000  1
 F  F12  1  0.20510  0.79490  0.01363  1
 F  F13  1  0.20510  0.79490  0.48637  1
 F  F14  1  0.82656  0.52702  0.75000  1
 Rb  Rb1  1  0.50000  0.50000  0.50000  1
 Rb  Rb2  1  0.50000  0.50000  0.00000  1
 Zr  Zr1  1  0.19362  0.80638  0.25000  1
 Zr  Zr2  1  0.80638  0.19362  0.75000  1
