CIF file written using JARVIS-Tools package.
data_NiAuO2
_symmetry_space_group_name_H-M  'R-3m'
_cell_length_a       2.97174
_cell_length_b       2.97174
_cell_length_c       6.31309
_cell_angle_alpha    76.3869
_cell_angle_beta     76.387
_cell_angle_gamma    59.9999

_symmetry_Int_Tables_number  166
_chemical_formula_structural  NiAuO2
_chemical_formula_sum  NiAuO2
_cell_volume  46.465670792477496
_cell_formula_units_Z  1
loop_
  _symmetry_equiv_pos_site_id
 _symmetry_equiv_pos_as_xyz
 1  'x, y, z'
loop_
 _atom_site_type_symbol
 _atom_site_label
 _atom_site_symmetry_multiplicity
 _atom_site_fract_x
 _atom_site_fract_y
 _atom_site_fract_z
 _atom_site_fract_occupancy
 Au  Au1  1  0.00000  0.00000  0.00000  1
 Ni  Ni1  1  0.50000  0.50000  0.50000  1
 O  O1  1  0.88685  0.88685  0.33944  1
 O  O2  1  0.11315  0.11315  0.66056  1
