CIF file written using JARVIS-Tools package.
data_CrH8C4S4N6
_symmetry_space_group_name_H-M  'P-1'
_cell_length_a       3.91891
_cell_length_b       7.43705
_cell_length_c       10.174
_cell_angle_alpha    91.9835
_cell_angle_beta     99.9038
_cell_angle_gamma    104.092

_symmetry_Int_Tables_number  2
_chemical_formula_structural  CrH8C4S4N6
_chemical_formula_sum  CrH8C4S4N6
_cell_volume  282.4034004861025
_cell_formula_units_Z  1
loop_
  _symmetry_equiv_pos_site_id
 _symmetry_equiv_pos_as_xyz
 1  'x, y, z'
loop_
 _atom_site_type_symbol
 _atom_site_label
 _atom_site_symmetry_multiplicity
 _atom_site_fract_x
 _atom_site_fract_y
 _atom_site_fract_z
 _atom_site_fract_occupancy
 C  C1  1  0.44098  0.69669  0.19416  1
 C  C2  1  0.55902  0.30331  0.80584  1
 C  C3  1  0.04084  0.17587  0.29041  1
 C  C4  1  0.95916  0.82413  0.70959  1
 Cr  Cr1  1  0.00000  0.00000  0.00000  1
 H  H1  1  0.48135  0.22656  0.60414  1
 H  H2  1  0.51865  0.77344  0.39586  1
 H  H3  1  0.67517  0.08455  0.71364  1
 H  H4  1  0.58831  0.46695  0.12928  1
 H  H5  1  0.41169  0.53305  0.87072  1
 H  H6  1  0.64719  0.50420  0.30307  1
 H  H7  1  0.35281  0.49580  0.69693  1
 H  H8  1  0.32483  0.91545  0.28636  1
 N  N1  1  0.93049  0.90257  0.80958  1
 N  N2  1  0.43036  0.45306  0.78942  1
 N  N3  1  0.56964  0.54694  0.21058  1
 N  N4  1  0.41494  0.79843  0.30062  1
 N  N5  1  0.58506  0.20157  0.69938  1
 N  N6  1  0.06951  0.09743  0.19042  1
 S  S1  1  0.68350  0.24668  0.96737  1
 S  S2  1  0.31650  0.75332  0.03263  1
 S  S3  1  0.00077  0.71854  0.57462  1
 S  S4  1  -0.00077  0.28146  0.42538  1
