data_image0
_chemical_formula_structural       Mg3Pd3Sm3
_chemical_formula_sum              "Mg3 Pd3 Sm3"
_cell_length_a       7.58091
_cell_length_b       7.58091
_cell_length_c       4.06499
_cell_angle_alpha    90
_cell_angle_beta     90
_cell_angle_gamma    120

_space_group_name_H-M_alt    "P 1"
_space_group_IT_number       1

loop_
  _space_group_symop_operation_xyz
  'x, y, z'

loop_
  _atom_site_type_symbol
  _atom_site_label
  _atom_site_symmetry_multiplicity
  _atom_site_fract_x
  _atom_site_fract_y
  _atom_site_fract_z
  _atom_site_occupancy
  Mg  Mg1       1.0  0.24000  0.00000  0.00000  1.0000
  Mg  Mg2       1.0  0.00000  0.24000  0.00000  1.0000
  Mg  Mg3       1.0  0.76000  0.76000  0.00000  1.0000
  Pd  Pd1       1.0  0.66700  0.33300  0.00000  1.0000
  Pd  Pd2       1.0  0.33300  0.66700  0.00000  1.0000
  Pd  Pd3       1.0  0.00000  0.00000  0.50000  1.0000
  Sm  Sm1       1.0  0.58500  0.00000  0.50000  1.0000
  Sm  Sm2       1.0  0.41500  0.41500  0.50000  1.0000
  Sm  Sm3       1.0  0.00000  0.58500  0.50000  1.0000
