CIF file written using JARVIS-Tools package.
data_Li2MnF4
_symmetry_space_group_name_H-M  'Imma'
_cell_length_a       7.97325
_cell_length_b       7.97325
_cell_length_c       5.97529
_cell_angle_alpha    67.9938
_cell_angle_beta     112.006
_cell_angle_gamma    116.282

_symmetry_Int_Tables_number  74
_chemical_formula_structural  Li2MnF4
_chemical_formula_sum  Li8Mn4F6
_cell_volume  305.66095355325984
_cell_formula_units_Z  4
loop_
  _symmetry_equiv_pos_site_id
 _symmetry_equiv_pos_as_xyz
 1  'x, y, z'
loop_
 _atom_site_type_symbol
 _atom_site_label
 _atom_site_symmetry_multiplicity
 _atom_site_fract_x
 _atom_site_fract_y
 _atom_site_fract_z
 _atom_site_fract_occupancy
 F  F1  1  0.61676  0.36773  0.85137  1
 F  F2  1  0.86773  0.11676  0.10234  1
 F  F3  1  0.98792  0.48792  0.75000  1
 F  F4  1  0.01208  0.51208  0.25000  1
 F  F5  1  0.38324  0.63227  0.14863  1
 F  F6  1  0.61676  0.36773  0.39766  1
 F  F7  1  0.86773  0.11676  0.64863  1
 F  F8  1  0.74243  0.77964  0.98139  1
 F  F9  1  0.49018  0.99018  0.25000  1
 F  F10  1  0.50982  0.00982  0.75000  1
 F  F11  1  0.72036  0.75757  0.48139  1
 F  F12  1  0.13227  0.88324  0.35137  1
 F  F13  1  0.38324  0.63227  0.60234  1
 F  F14  1  0.13227  0.88324  0.89766  1
 F  F15  1  0.25757  0.22036  0.01861  1
 F  F16  1  0.27964  0.24243  0.51861  1
 Li  Li1  1  0.38749  0.11251  0.88749  1
 Li  Li2  1  0.61251  0.88749  0.61251  1
 Li  Li3  1  0.25498  0.75498  0.25000  1
 Li  Li4  1  0.74502  0.24502  0.75000  1
 Li  Li5  1  0.50000  0.50000  0.50000  1
 Li  Li6  1  0.38749  0.11251  0.38749  1
 Li  Li7  1  0.61251  0.88749  0.11251  1
 Li  Li8  1  0.00000  0.00000  0.00000  1
 Mn  Mn1  1  0.73580  0.51112  0.11234  1
 Mn  Mn2  1  0.01112  0.23580  0.38766  1
 Mn  Mn3  1  0.98888  0.76420  0.61234  1
 Mn  Mn4  1  0.26420  0.48888  0.88766  1
