CIF file written using JARVIS-Tools package.
data_MnF2
_symmetry_space_group_name_H-M  'Pbcn'
_cell_length_a       4.70549
_cell_length_b       4.74424
_cell_length_c       5.59288
_cell_angle_alpha    90
_cell_angle_beta     90
_cell_angle_gamma    90

_symmetry_Int_Tables_number  60
_chemical_formula_structural  MnF2
_chemical_formula_sum  Mn4F8
_cell_volume  124.85518455886069
_cell_formula_units_Z  4
loop_
  _symmetry_equiv_pos_site_id
 _symmetry_equiv_pos_as_xyz
 1  'x, y, z'
loop_
 _atom_site_type_symbol
 _atom_site_label
 _atom_site_symmetry_multiplicity
 _atom_site_fract_x
 _atom_site_fract_y
 _atom_site_fract_z
 _atom_site_fract_occupancy
 F  F1  1  0.75515  0.08445  0.37407  1
 F  F2  1  0.25515  0.91555  0.12593  1
 F  F3  1  0.74485  0.58445  0.12593  1
 F  F4  1  0.24485  0.41555  0.37407  1
 F  F5  1  0.75515  0.58445  0.62593  1
 F  F6  1  0.25515  0.41555  0.87407  1
 F  F7  1  0.74485  0.08445  0.87407  1
 F  F8  1  0.24485  0.91555  0.62593  1
 Mn  Mn1  1  0.50000  0.75000  0.37480  1
 Mn  Mn2  1  0.00000  0.25000  0.12520  1
 Mn  Mn3  1  0.50000  0.25000  0.62520  1
 Mn  Mn4  1  0.00000  0.75000  0.87480  1
