CIF file written using JARVIS-Tools package.
data_Tl2SnTe5
_symmetry_space_group_name_H-M  'I4/mcm'
_cell_length_a       8.43584
_cell_length_b       8.43582
_cell_length_c       9.74016
_cell_angle_alpha    115.678
_cell_angle_beta     115.661
_cell_angle_gamma    90

_symmetry_Int_Tables_number  140
_chemical_formula_structural  Tl2SnTe5
_chemical_formula_sum  Tl4Sn2Te0
_cell_volume  547.8521428602187
_cell_formula_units_Z  2
loop_
  _symmetry_equiv_pos_site_id
 _symmetry_equiv_pos_as_xyz
 1  'x, y, z'
loop_
 _atom_site_type_symbol
 _atom_site_label
 _atom_site_symmetry_multiplicity
 _atom_site_fract_x
 _atom_site_fract_y
 _atom_site_fract_z
 _atom_site_fract_occupancy
 Sn  Sn1  1  0.24999  0.75000  0.50000  1
 Sn  Sn2  1  0.75001  0.25000  0.50000  1
 Te  Te1  1  0.50000  0.00000  0.00000  1
 Te  Te2  1  -0.00000  0.50000  0.00000  1
 Te  Te3  1  0.32190  0.82188  0.26897  1
 Te  Te4  1  0.44708  0.32188  0.26897  1
 Te  Te5  1  0.82179  0.94699  0.26879  1
 Te  Te6  1  0.55292  0.67812  0.73103  1
 Te  Te7  1  0.17821  0.05301  0.73121  1
 Te  Te8  1  0.05299  0.55301  0.73121  1
 Te  Te9  1  0.67810  0.17812  0.73103  1
 Te  Te10  1  0.94701  0.44699  0.26879  1
 Tl  Tl1  1  0.00000  0.00000  0.00000  1
 Tl  Tl2  1  0.50000  0.50000  0.00000  1
 Tl  Tl3  1  0.24995  0.25000  0.50000  1
 Tl  Tl4  1  0.75005  0.75000  0.50000  1
