CIF file written using JARVIS-Tools package.
data_NaNb2PS10
_symmetry_space_group_name_H-M  'C2/c'
_cell_length_a       7.81906
_cell_length_b       13.0358
_cell_length_c       13.0082
_cell_angle_alpha    91.3798
_cell_angle_beta     107.49
_cell_angle_gamma    90

_symmetry_Int_Tables_number  15
_chemical_formula_structural  NaNb2PS10
_chemical_formula_sum  Na4Nb8P4S40
_cell_volume  1264.1964697047113
_cell_formula_units_Z  4
loop_
  _symmetry_equiv_pos_site_id
 _symmetry_equiv_pos_as_xyz
 1  'x, y, z'
loop_
 _atom_site_type_symbol
 _atom_site_label
 _atom_site_symmetry_multiplicity
 _atom_site_fract_x
 _atom_site_fract_y
 _atom_site_fract_z
 _atom_site_fract_occupancy
 Na  Na1  1  0.93779  0.88629  0.88468  1
 Na  Na2  1  0.05311  0.61371  0.11532  1
 Na  Na3  1  0.94689  0.38629  0.88468  1
 Na  Na4  1  0.06221  0.11371  0.11532  1
 Nb  Nb1  1  0.70935  0.72126  0.28226  1
 Nb  Nb2  1  0.70211  0.01196  0.28340  1
 Nb  Nb3  1  0.29065  0.27874  0.71774  1
 Nb  Nb4  1  0.58129  0.51196  0.28340  1
 Nb  Nb5  1  0.57292  0.22126  0.28226  1
 Nb  Nb6  1  0.29789  0.98804  0.71660  1
 Nb  Nb7  1  0.41871  0.48804  0.71660  1
 Nb  Nb8  1  0.42708  0.77874  0.71774  1
 P  P1  1  0.20534  0.36929  0.20742  1
 P  P2  1  0.00208  0.86929  0.20742  1
 P  P3  1  -0.00208  0.13071  0.79258  1
 P  P4  1  0.79466  0.63071  0.79258  1
 S  S1  1  0.95773  0.99873  0.69764  1
 S  S2  1  0.26009  0.50127  0.30236  1
 S  S3  1  0.23854  0.13002  0.57639  1
 S  S4  1  0.72287  0.86397  0.13984  1
 S  S5  1  0.33785  0.63002  0.57639  1
 S  S6  1  0.17049  0.85627  0.57202  1
 S  S7  1  0.73991  0.49873  0.69764  1
 S  S8  1  0.41697  0.36397  0.13984  1
 S  S9  1  0.59847  0.64373  0.42798  1
 S  S10  1  0.45321  0.64683  0.13376  1
 S  S11  1  0.76146  0.86998  0.42361  1
 S  S12  1  0.04227  0.00127  0.30236  1
 S  S13  1  0.55463  0.92326  0.86493  1
 S  S14  1  0.95786  0.37209  0.10210  1
 S  S15  1  0.24905  0.23871  0.29792  1
 S  S16  1  0.82951  0.14373  0.42798  1
 S  S17  1  0.50566  0.86533  0.31604  1
 S  S18  1  0.58086  0.09589  0.42646  1
 S  S19  1  0.68970  0.57674  0.13507  1
 S  S20  1  0.68055  0.14683  0.13376  1
 S  S21  1  0.85576  0.12791  0.89790  1
 S  S22  1  0.41914  0.90411  0.57354  1
 S  S23  1  0.49434  0.13467  0.68396  1
 S  S24  1  0.15440  0.40411  0.57354  1
 S  S25  1  0.31030  0.42326  0.86493  1
 S  S26  1  0.66215  0.36998  0.42361  1
 S  S27  1  0.04887  0.73871  0.29792  1
 S  S28  1  0.58303  0.63603  0.86016  1
 S  S29  1  0.40153  0.35627  0.57202  1
 S  S30  1  0.31945  0.85317  0.86624  1
 S  S31  1  0.54679  0.35317  0.86624  1
 S  S32  1  0.14424  0.87209  0.10210  1
 S  S33  1  0.75095  0.76129  0.70208  1
 S  S34  1  0.18962  0.63467  0.68396  1
 S  S35  1  0.84560  0.59589  0.42646  1
 S  S36  1  0.81038  0.36533  0.31604  1
 S  S37  1  0.27713  0.13603  0.86016  1
 S  S38  1  0.04214  0.62791  0.89790  1
 S  S39  1  0.95113  0.26129  0.70208  1
 S  S40  1  0.44537  0.07674  0.13507  1
