CIF file written using JARVIS-Tools package.
data_K2HfF6
_symmetry_space_group_name_H-M  'P-62m'
_cell_length_a       6.43495
_cell_length_b       6.43495
_cell_length_c       3.4541
_cell_angle_alpha    90
_cell_angle_beta     90
_cell_angle_gamma    120

_symmetry_Int_Tables_number  189
_chemical_formula_structural  K2HfF6
_chemical_formula_sum  K2HfF6
_cell_volume  123.86721287573245
_cell_formula_units_Z  1
loop_
  _symmetry_equiv_pos_site_id
 _symmetry_equiv_pos_as_xyz
 1  'x, y, z'
loop_
 _atom_site_type_symbol
 _atom_site_label
 _atom_site_symmetry_multiplicity
 _atom_site_fract_x
 _atom_site_fract_y
 _atom_site_fract_z
 _atom_site_fract_occupancy
 F  F1  1  0.78194  0.00000  0.50000  1
 F  F2  1  0.21806  0.21806  0.50000  1
 F  F3  1  0.00000  0.78194  0.50000  1
 F  F4  1  -0.00000  0.32353  0.00000  1
 F  F5  1  0.67647  0.67647  0.00000  1
 F  F6  1  0.32353  -0.00000  0.00000  1
 Hf  Hf1  1  0.00000  0.00000  0.00000  1
 K  K1  1  0.66667  0.33333  0.50000  1
 K  K2  1  0.33333  0.66667  0.50000  1
