CIF file written using JARVIS-Tools package.
data_KNaTe
_symmetry_space_group_name_H-M  'Pnma'
_cell_length_a       5.12004
_cell_length_b       8.52072
_cell_length_c       9.23135
_cell_angle_alpha    90
_cell_angle_beta     90
_cell_angle_gamma    90

_symmetry_Int_Tables_number  62
_chemical_formula_structural  KNaTe
_chemical_formula_sum  K4Na4Te4
_cell_volume  402.73109669957176
_cell_formula_units_Z  4
loop_
  _symmetry_equiv_pos_site_id
 _symmetry_equiv_pos_as_xyz
 1  'x, y, z'
loop_
 _atom_site_type_symbol
 _atom_site_label
 _atom_site_symmetry_multiplicity
 _atom_site_fract_x
 _atom_site_fract_y
 _atom_site_fract_z
 _atom_site_fract_occupancy
 K  K1  1  0.75000  0.48790  0.68810  1
 K  K2  1  0.25000  0.01210  0.18810  1
 K  K3  1  0.75000  0.98790  0.81190  1
 K  K4  1  0.25000  0.51210  0.31190  1
 Na  Na1  1  0.25000  0.64750  0.92558  1
 Na  Na2  1  0.25000  0.14750  0.57442  1
 Na  Na3  1  0.75000  0.35250  0.07442  1
 Na  Na4  1  0.75000  0.85250  0.42558  1
 Te  Te1  1  0.25000  0.77619  0.60549  1
 Te  Te2  1  0.25000  0.27619  0.89451  1
 Te  Te3  1  0.75000  0.72381  0.10549  1
 Te  Te4  1  0.75000  0.22381  0.39451  1
