CIF file written using JARVIS-Tools package.
data_OsBr4
_symmetry_space_group_name_H-M  'Pbca'
_cell_length_a       6.34505
_cell_length_b       12.0313
_cell_length_c       14.6357
_cell_angle_alpha    90
_cell_angle_beta     90
_cell_angle_gamma    90

_symmetry_Int_Tables_number  61
_chemical_formula_structural  OsBr4
_chemical_formula_sum  Os8Br32
_cell_volume  1117.2755332572513
_cell_formula_units_Z  8
loop_
  _symmetry_equiv_pos_site_id
 _symmetry_equiv_pos_as_xyz
 1  'x, y, z'
loop_
 _atom_site_type_symbol
 _atom_site_label
 _atom_site_symmetry_multiplicity
 _atom_site_fract_x
 _atom_site_fract_y
 _atom_site_fract_z
 _atom_site_fract_occupancy
 Br  Br1  1  0.24410  0.49577  0.93241  1
 Br  Br2  1  0.07673  0.74411  0.30944  1
 Br  Br3  1  0.92327  0.25589  0.69056  1
 Br  Br4  1  0.92327  0.24411  0.19056  1
 Br  Br5  1  0.42327  0.25589  0.80944  1
 Br  Br6  1  0.75590  0.99577  0.56759  1
 Br  Br7  1  0.42327  0.24411  0.30944  1
 Br  Br8  1  0.07673  0.75589  0.80944  1
 Br  Br9  1  0.23772  0.51144  0.19064  1
 Br  Br10  1  0.57673  0.74411  0.19056  1
 Br  Br11  1  0.06158  0.74906  0.56781  1
 Br  Br12  1  0.43842  0.25094  0.06781  1
 Br  Br13  1  0.93842  0.24906  0.93219  1
 Br  Br14  1  0.43842  0.24906  0.56781  1
 Br  Br15  1  0.93842  0.25094  0.43219  1
 Br  Br16  1  0.56158  0.74906  0.93219  1
 Br  Br17  1  0.06158  0.75094  0.06781  1
 Br  Br18  1  0.56158  0.75094  0.43219  1
 Br  Br19  1  0.74410  0.00423  0.06759  1
 Br  Br20  1  0.25590  0.50423  0.43241  1
 Br  Br21  1  0.74410  0.49577  0.56759  1
 Br  Br22  1  0.23772  0.98856  0.69064  1
 Br  Br23  1  0.57673  0.75589  0.69056  1
 Br  Br24  1  0.76228  0.48856  0.80936  1
 Br  Br25  1  0.26228  0.48856  0.69064  1
 Br  Br26  1  0.76228  0.01144  0.30936  1
 Br  Br27  1  0.26228  0.01144  0.19064  1
 Br  Br28  1  0.24410  0.00423  0.43241  1
 Br  Br29  1  0.75590  0.50423  0.06759  1
 Br  Br30  1  0.25590  0.99577  0.93241  1
 Br  Br31  1  0.73772  0.51144  0.30936  1
 Br  Br32  1  0.73772  0.98856  0.80936  1
 Os  Os1  1  0.90758  0.62812  0.18084  1
 Os  Os2  1  0.40758  0.87188  0.81916  1
 Os  Os3  1  0.09242  0.12812  0.31916  1
 Os  Os4  1  0.59242  0.37188  0.68084  1
 Os  Os5  1  0.09242  0.37188  0.81916  1
 Os  Os6  1  0.59242  0.12812  0.18084  1
 Os  Os7  1  0.90758  0.87188  0.68084  1
 Os  Os8  1  0.40758  0.62812  0.31916  1
