CIF file written using JARVIS-Tools package.
data_SrZnBi2
_symmetry_space_group_name_H-M  'I4/mmm'
_cell_length_a       4.65247
_cell_length_b       4.65247
_cell_length_c       11.5339
_cell_angle_alpha    101.636
_cell_angle_beta     101.636
_cell_angle_gamma    90.0001

_symmetry_Int_Tables_number  139
_chemical_formula_structural  SrZnBi2
_chemical_formula_sum  Sr2Zn2Bi4
_cell_volume  239.28493060802427
_cell_formula_units_Z  2
loop_
  _symmetry_equiv_pos_site_id
 _symmetry_equiv_pos_as_xyz
 1  'x, y, z'
loop_
 _atom_site_type_symbol
 _atom_site_label
 _atom_site_symmetry_multiplicity
 _atom_site_fract_x
 _atom_site_fract_y
 _atom_site_fract_z
 _atom_site_fract_occupancy
 Bi  Bi1  1  0.33002  0.33002  0.66005  1
 Bi  Bi2  1  0.66998  0.66998  0.33995  1
 Bi  Bi3  1  0.50000  0.00000  -0.00000  1
 Bi  Bi4  1  0.00000  0.50000  0.00000  1
 Sr  Sr1  1  0.87731  0.87731  0.75463  1
 Sr  Sr2  1  0.12269  0.12269  0.24537  1
 Zn  Zn1  1  0.25000  0.75000  0.50000  1
 Zn  Zn2  1  0.75000  0.25000  0.50000  1
