CIF file written using JARVIS-Tools package.
data_Mg8BPt4
_symmetry_space_group_name_H-M  'Fd-3m'
_cell_length_a       8.67592
_cell_length_b       8.67592
_cell_length_c       8.67593
_cell_angle_alpha    60
_cell_angle_beta     60
_cell_angle_gamma    60

_symmetry_Int_Tables_number  227
_chemical_formula_structural  Mg8BPt4
_chemical_formula_sum  Mg6B2Pt8
_cell_volume  461.77738641834935
_cell_formula_units_Z  2
loop_
  _symmetry_equiv_pos_site_id
 _symmetry_equiv_pos_as_xyz
 1  'x, y, z'
loop_
 _atom_site_type_symbol
 _atom_site_label
 _atom_site_symmetry_multiplicity
 _atom_site_fract_x
 _atom_site_fract_y
 _atom_site_fract_z
 _atom_site_fract_occupancy
 B  B1  1  0.37500  0.37500  0.37500  1
 B  B2  1  0.62500  0.62500  0.62500  1
 Mg  Mg1  1  0.67513  0.67513  0.07487  1
 Mg  Mg2  1  0.67513  0.07487  0.07487  1
 Mg  Mg3  1  0.92513  0.92513  0.32487  1
 Mg  Mg4  1  0.50000  0.50000  0.50000  1
 Mg  Mg5  1  0.92513  0.32487  0.92513  1
 Mg  Mg6  1  0.32487  0.92513  0.92513  1
 Mg  Mg7  1  0.32487  0.32487  0.92513  1
 Mg  Mg8  1  0.07487  0.67513  0.07487  1
 Mg  Mg9  1  0.50000  0.50000  -0.00000  1
 Mg  Mg10  1  0.67513  0.07487  0.67513  1
 Mg  Mg11  1  0.07487  0.67513  0.67513  1
 Mg  Mg12  1  0.32487  0.92513  0.32487  1
 Mg  Mg13  1  0.92513  0.32487  0.32487  1
 Mg  Mg14  1  -0.00000  0.50000  0.50000  1
 Mg  Mg15  1  0.07487  0.07487  0.67513  1
 Mg  Mg16  1  0.50000  0.00000  0.50000  1
 Pt  Pt1  1  0.27477  0.27477  0.67570  1
 Pt  Pt2  1  0.27477  0.67570  0.27477  1
 Pt  Pt3  1  0.72523  0.72523  0.72523  1
 Pt  Pt4  1  0.72523  0.32430  0.72523  1
 Pt  Pt5  1  0.32430  0.72523  0.72523  1
 Pt  Pt6  1  0.67570  0.27477  0.27477  1
 Pt  Pt7  1  0.27477  0.27477  0.27477  1
 Pt  Pt8  1  0.72523  0.72523  0.32430  1
