CIF file written using JARVIS-Tools package.
data_La3MnGaS7
_symmetry_space_group_name_H-M  'P6_3'
_cell_length_a       10.0381
_cell_length_b       10.0381
_cell_length_c       6.1237
_cell_angle_alpha    90
_cell_angle_beta     90
_cell_angle_gamma    120

_symmetry_Int_Tables_number  173
_chemical_formula_structural  La3MnGaS7
_chemical_formula_sum  La6Mn2Ga2S4
_cell_volume  534.3821191643884
_cell_formula_units_Z  2
loop_
  _symmetry_equiv_pos_site_id
 _symmetry_equiv_pos_as_xyz
 1  'x, y, z'
loop_
 _atom_site_type_symbol
 _atom_site_label
 _atom_site_symmetry_multiplicity
 _atom_site_fract_x
 _atom_site_fract_y
 _atom_site_fract_z
 _atom_site_fract_occupancy
 Ga  Ga1  1  0.66667  0.33333  0.09652  1
 Ga  Ga2  1  0.33333  0.66667  0.59652  1
 La  La1  1  0.15401  0.37313  0.01904  1
 La  La2  1  0.78088  0.15401  0.51904  1
 La  La3  1  0.37313  0.21912  0.51904  1
 La  La4  1  0.62687  0.78088  0.01904  1
 La  La5  1  0.21912  0.84599  0.01904  1
 La  La6  1  0.84599  0.62687  0.51904  1
 Mn  Mn1  1  0.00000  0.00000  0.19296  1
 Mn  Mn2  1  0.00000  0.00000  0.69296  1
 S  S1  1  0.21424  0.12446  0.94111  1
 S  S2  1  0.33333  0.66667  0.22930  1
 S  S3  1  0.12446  0.91022  0.44111  1
 S  S4  1  0.87554  0.08978  0.94111  1
 S  S5  1  0.91022  0.78576  0.94111  1
 S  S6  1  0.08978  0.21424  0.44111  1
 S  S7  1  0.56769  0.47765  0.23716  1
 S  S8  1  0.43231  0.52235  0.73716  1
 S  S9  1  0.09004  0.56769  0.73716  1
 S  S10  1  0.90996  0.43231  0.23716  1
 S  S11  1  0.78576  0.87554  0.44111  1
 S  S12  1  0.47765  0.90996  0.73716  1
 S  S13  1  0.52235  0.09004  0.23716  1
 S  S14  1  0.66667  0.33333  0.72930  1
