CIF file written using JARVIS-Tools package.
data_KHgC2IN2
_symmetry_space_group_name_H-M  'Cmcm'
_cell_length_a       4.37685
_cell_length_b       8.34415
_cell_length_c       9.705
_cell_angle_alpha    90
_cell_angle_beta     90
_cell_angle_gamma    105.205

_symmetry_Int_Tables_number  63
_chemical_formula_structural  KHgC2IN2
_chemical_formula_sum  K2Hg2C4I2N4
_cell_volume  342.03042046075217
_cell_formula_units_Z  2
loop_
  _symmetry_equiv_pos_site_id
 _symmetry_equiv_pos_as_xyz
 1  'x, y, z'
loop_
 _atom_site_type_symbol
 _atom_site_label
 _atom_site_symmetry_multiplicity
 _atom_site_fract_x
 _atom_site_fract_y
 _atom_site_fract_z
 _atom_site_fract_occupancy
 C  C1  1  0.87719  0.75439  0.05705  1
 C  C2  1  0.12281  0.24561  0.94295  1
 C  C3  1  0.12281  0.24561  0.55705  1
 C  C4  1  0.87719  0.75439  0.44295  1
 Hg  Hg1  1  0.00000  0.00000  0.00000  1
 Hg  Hg2  1  0.00000  0.00000  0.50000  1
 I  I1  1  0.55377  0.10754  0.25000  1
 I  I2  1  0.44623  0.89246  0.75000  1
 K  K1  1  0.76423  0.52846  0.75000  1
 K  K2  1  0.23577  0.47154  0.25000  1
 N  N1  1  0.80713  0.61427  0.08749  1
 N  N2  1  0.19287  0.38573  0.58749  1
 N  N3  1  0.80713  0.61427  0.41251  1
 N  N4  1  0.19287  0.38573  0.91251  1
