CIF file written using JARVIS-Tools package.
data_Rb3Cu8Se6
_symmetry_space_group_name_H-M  'C2/m'
_cell_length_a       4.03568
_cell_length_b       9.43502
_cell_length_c       10.2051
_cell_angle_alpha    105.171
_cell_angle_beta     90
_cell_angle_gamma    102.349

_symmetry_Int_Tables_number  12
_chemical_formula_structural  Rb3Cu8Se6
_chemical_formula_sum  Rb3Cu8Se6
_cell_volume  365.7115043206175
_cell_formula_units_Z  1
loop_
  _symmetry_equiv_pos_site_id
 _symmetry_equiv_pos_as_xyz
 1  'x, y, z'
loop_
 _atom_site_type_symbol
 _atom_site_label
 _atom_site_symmetry_multiplicity
 _atom_site_fract_x
 _atom_site_fract_y
 _atom_site_fract_z
 _atom_site_fract_occupancy
 Cu  Cu1  1  0.69628  0.39256  0.90825  1
 Cu  Cu2  1  0.89682  0.79363  0.21427  1
 Cu  Cu3  1  0.91887  0.83774  0.46840  1
 Cu  Cu4  1  0.10318  0.20637  0.78573  1
 Cu  Cu5  1  0.30372  0.60744  0.09175  1
 Cu  Cu6  1  0.48049  0.96098  0.36190  1
 Cu  Cu7  1  0.08113  0.16226  0.53160  1
 Cu  Cu8  1  0.51951  0.03902  0.63810  1
 Rb  Rb1  1  0.69006  0.38012  0.30485  1
 Rb  Rb2  1  0.50000  0.00000  0.00000  1
 Rb  Rb3  1  0.30994  0.61988  0.69515  1
 Se  Se1  1  0.34416  0.68832  0.35540  1
 Se  Se2  1  0.83850  0.67701  0.97649  1
 Se  Se3  1  0.16150  0.32299  0.02351  1
 Se  Se4  1  0.03664  0.07327  0.28920  1
 Se  Se5  1  0.65584  0.31168  0.64460  1
 Se  Se6  1  0.96336  0.92673  0.71080  1
