CIF file written using JARVIS-Tools package.
data_KAlF4
_symmetry_space_group_name_H-M  'P4/mmm'
_cell_length_a       3.64396
_cell_length_b       3.64396
_cell_length_c       6.19898
_cell_angle_alpha    90
_cell_angle_beta     90
_cell_angle_gamma    90

_symmetry_Int_Tables_number  123
_chemical_formula_structural  KAlF4
_chemical_formula_sum  KAlF4
_cell_volume  82.31296867869459
_cell_formula_units_Z  1
loop_
  _symmetry_equiv_pos_site_id
 _symmetry_equiv_pos_as_xyz
 1  'x, y, z'
loop_
 _atom_site_type_symbol
 _atom_site_label
 _atom_site_symmetry_multiplicity
 _atom_site_fract_x
 _atom_site_fract_y
 _atom_site_fract_z
 _atom_site_fract_occupancy
 Al  Al1  1  0.50000  0.50000  0.50000  1
 F  F1  1  0.50000  0.50000  0.78889  1
 F  F2  1  0.50000  0.50000  0.21111  1
 F  F3  1  0.50000  0.00000  0.50000  1
 F  F4  1  0.00000  0.50000  0.50000  1
 K  K1  1  0.00000  0.00000  0.00000  1
