CIF file written using JARVIS-Tools package.
data_Ti3MnO8
_symmetry_space_group_name_H-M  'P6_3mc'
_cell_length_a       5.9271
_cell_length_b       5.9271
_cell_length_c       8.75315
_cell_angle_alpha    90
_cell_angle_beta     90
_cell_angle_gamma    120

_symmetry_Int_Tables_number  186
_chemical_formula_structural  Ti3MnO8
_chemical_formula_sum  Ti6Mn2O6
_cell_volume  266.30538300711174
_cell_formula_units_Z  2
loop_
  _symmetry_equiv_pos_site_id
 _symmetry_equiv_pos_as_xyz
 1  'x, y, z'
loop_
 _atom_site_type_symbol
 _atom_site_label
 _atom_site_symmetry_multiplicity
 _atom_site_fract_x
 _atom_site_fract_y
 _atom_site_fract_z
 _atom_site_fract_occupancy
 Mn  Mn1  1  0.33333  0.66667  0.51694  1
 Mn  Mn2  1  0.66667  0.33333  0.01694  1
 O  O1  1  0.52661  0.47339  0.15502  1
 O  O2  1  0.17425  0.82575  0.39563  1
 O  O3  1  0.47339  0.94677  0.65502  1
 O  O4  1  0.33333  0.66667  0.90656  1
 O  O5  1  0.52661  0.05323  0.15502  1
 O  O6  1  0.00000  0.00000  0.18541  1
 O  O7  1  0.65150  0.82575  0.39563  1
 O  O8  1  0.00000  0.00000  0.68541  1
 O  O9  1  0.47339  0.52661  0.65502  1
 O  O10  1  0.82575  0.65150  0.89563  1
 O  O11  1  0.82575  0.17425  0.89563  1
 O  O12  1  0.05323  0.52661  0.65502  1
 O  O13  1  0.94677  0.47339  0.15502  1
 O  O14  1  0.66667  0.33333  0.40656  1
 O  O15  1  0.34850  0.17425  0.89563  1
 O  O16  1  0.17425  0.34850  0.39563  1
 Ti  Ti1  1  0.83339  0.16661  0.29376  1
 Ti  Ti2  1  0.33322  0.16661  0.29376  1
 Ti  Ti3  1  0.83339  0.66678  0.29376  1
 Ti  Ti4  1  0.16661  0.33322  0.79376  1
 Ti  Ti5  1  0.66678  0.83339  0.79376  1
 Ti  Ti6  1  0.16661  0.83339  0.79376  1
