CIF file written using JARVIS-Tools package.
data_LiFe2OF5
_symmetry_space_group_name_H-M  'Pc'
_cell_length_a       4.6712
_cell_length_b       4.67005
_cell_length_c       10.2606
_cell_angle_alpha    90
_cell_angle_beta     117.198
_cell_angle_gamma    90

_symmetry_Int_Tables_number  7
_chemical_formula_structural  LiFe2OF5
_chemical_formula_sum  Li2Fe4O2F0
_cell_volume  199.08368412404778
_cell_formula_units_Z  2
loop_
  _symmetry_equiv_pos_site_id
 _symmetry_equiv_pos_as_xyz
 1  'x, y, z'
loop_
 _atom_site_type_symbol
 _atom_site_label
 _atom_site_symmetry_multiplicity
 _atom_site_fract_x
 _atom_site_fract_y
 _atom_site_fract_z
 _atom_site_fract_occupancy
 F  F1  1  0.96927  0.44667  0.16687  1
 F  F2  1  0.31505  0.43808  0.50394  1
 F  F3  1  0.69724  0.05285  0.50103  1
 F  F4  1  0.69724  0.94715  0.00103  1
 F  F5  1  0.36718  0.04979  0.16731  1
 F  F6  1  0.31505  0.56192  0.00394  1
 F  F7  1  0.61798  0.53638  0.32690  1
 F  F8  1  0.96927  0.55333  0.66687  1
 F  F9  1  0.61798  0.46362  0.82690  1
 F  F10  1  0.36718  0.95021  0.66731  1
 Fe  Fe1  1  0.31397  0.77283  0.83425  1
 Fe  Fe2  1  0.68808  0.75653  0.17834  1
 Fe  Fe3  1  0.31397  0.22717  0.33425  1
 Fe  Fe4  1  0.68808  0.24347  0.67834  1
 Li  Li1  1  0.00561  0.74758  0.49952  1
 Li  Li2  1  0.00561  0.25242  0.99952  1
 O  O1  1  0.02563  0.94890  0.32183  1
 O  O2  1  0.02563  0.05110  0.82183  1
