CIF file written using JARVIS-Tools package.
data_Mg3Mn2Si3O12
_symmetry_space_group_name_H-M  'Ia-3d'
_cell_length_a       10.1445
_cell_length_b       10.1445
_cell_length_c       10.1445
_cell_angle_alpha    109.471
_cell_angle_beta     109.471
_cell_angle_gamma    109.471

_symmetry_Int_Tables_number  230
_chemical_formula_structural  Mg3Mn2Si3O12
_chemical_formula_sum  Mg2Mn8Si2O48
_cell_volume  803.6461899944034
_cell_formula_units_Z  4
loop_
  _symmetry_equiv_pos_site_id
 _symmetry_equiv_pos_as_xyz
 1  'x, y, z'
loop_
 _atom_site_type_symbol
 _atom_site_label
 _atom_site_symmetry_multiplicity
 _atom_site_fract_x
 _atom_site_fract_y
 _atom_site_fract_z
 _atom_site_fract_occupancy
 Mg  Mg1  1  0.25000  0.87500  0.62500  1
 Mg  Mg2  1  0.25000  0.37500  0.12500  1
 Mg  Mg3  1  0.37500  0.75000  0.12500  1
 Mg  Mg4  1  0.12500  0.25000  0.37500  1
 Mg  Mg5  1  0.37500  0.12500  0.25000  1
 Mg  Mg6  1  0.12500  0.37500  0.75000  1
 Mg  Mg7  1  0.75000  0.12500  0.37500  1
 Mg  Mg8  1  0.75000  0.62500  0.87500  1
 Mg  Mg9  1  0.62500  0.25000  0.87500  1
 Mg  Mg10  1  0.87500  0.75000  0.62500  1
 Mg  Mg11  1  0.62500  0.87500  0.75000  1
 Mg  Mg12  1  0.87500  0.62500  0.25000  1
 Mn  Mn1  1  0.00000  0.00000  0.00000  1
 Mn  Mn2  1  0.50000  0.50000  0.50000  1
 Mn  Mn3  1  0.50000  0.00000  0.50000  1
 Mn  Mn4  1  0.50000  0.00000  1.00000  1
 Mn  Mn5  1  1.00000  0.50000  1.00000  1
 Mn  Mn6  1  0.50000  0.50000  -0.00000  1
 Mn  Mn7  1  1.00000  0.50000  0.50000  1
 Mn  Mn8  1  0.00000  0.00000  0.50000  1
 O  O1  1  0.02225  0.21346  0.12417  1
 O  O2  1  0.28654  0.47775  0.37583  1
 O  O3  1  0.41071  0.80879  0.78654  1
 O  O4  1  0.30879  0.91071  0.28654  1
 O  O5  1  0.52225  0.39808  0.80879  1
 O  O6  1  0.69121  0.10192  0.97775  1
 O  O7  1  0.52225  0.62417  0.71346  1
 O  O8  1  0.08929  0.87583  0.39808  1
 O  O9  1  0.39808  0.08929  0.87583  1
 O  O10  1  0.10192  0.97775  0.69121  1
 O  O11  1  0.62417  0.41071  0.10192  1
 O  O12  1  0.62417  0.71346  0.52225  1
 O  O13  1  0.19121  0.47775  0.60192  1
 O  O14  1  0.30879  0.89808  0.02225  1
 O  O15  1  0.12417  0.02225  0.21346  1
 O  O16  1  0.47775  0.60192  0.19121  1
 O  O17  1  0.37583  0.58929  0.89808  1
 O  O18  1  0.89808  0.02225  0.30879  1
 O  O19  1  0.78654  0.87583  0.97775  1
 O  O20  1  0.60192  0.91071  0.12417  1
 O  O21  1  0.47775  0.37583  0.28654  1
 O  O22  1  0.37583  0.28654  0.47775  1
 O  O23  1  0.87583  0.97775  0.78654  1
 O  O24  1  0.28654  0.30879  0.91071  1
 O  O25  1  0.71346  0.52225  0.62417  1
 O  O26  1  0.97775  0.69121  0.10192  1
 O  O27  1  0.87583  0.39808  0.08929  1
 O  O28  1  0.58929  0.89808  0.37583  1
 O  O29  1  0.39808  0.80879  0.52225  1
 O  O30  1  0.60192  0.19121  0.47775  1
 O  O31  1  0.80879  0.52225  0.39808  1
 O  O32  1  0.19121  0.21346  0.58929  1
 O  O33  1  0.41071  0.10192  0.62417  1
 O  O34  1  0.02225  0.30879  0.89808  1
 O  O35  1  0.12417  0.60192  0.91071  1
 O  O36  1  0.21346  0.58929  0.19121  1
 O  O37  1  0.21346  0.12417  0.02225  1
 O  O38  1  0.58929  0.19121  0.21346  1
 O  O39  1  0.78654  0.41071  0.80879  1
 O  O40  1  0.71346  0.69121  0.08929  1
 O  O41  1  0.91071  0.12417  0.60192  1
 O  O42  1  0.97775  0.78654  0.87583  1
 O  O43  1  0.08929  0.71346  0.69121  1
 O  O44  1  0.89808  0.37583  0.58929  1
 O  O45  1  0.10192  0.62417  0.41071  1
 O  O46  1  0.80879  0.78654  0.41071  1
 O  O47  1  0.91071  0.28654  0.30879  1
 O  O48  1  0.69121  0.08929  0.71346  1
 Si  Si1  1  0.87500  0.12500  0.75000  1
 Si  Si2  1  0.75000  0.87500  0.12500  1
 Si  Si3  1  0.25000  0.62500  0.37500  1
 Si  Si4  1  0.87500  0.25000  0.12500  1
 Si  Si5  1  0.25000  0.12500  0.87500  1
 Si  Si6  1  0.12500  0.75000  0.87500  1
 Si  Si7  1  0.75000  0.37500  0.62500  1
 Si  Si8  1  0.37500  0.25000  0.62500  1
 Si  Si9  1  0.62500  0.37500  0.25000  1
 Si  Si10  1  0.12500  0.87500  0.25000  1
 Si  Si11  1  0.37500  0.62500  0.75000  1
 Si  Si12  1  0.62500  0.75000  0.37500  1
