CIF file written using JARVIS-Tools package.
data_ZnCoPHO5
_symmetry_space_group_name_H-M  'P-1'
_cell_length_a       5.24517
_cell_length_b       5.50054
_cell_length_c       7.46098
_cell_angle_alpha    94.7076
_cell_angle_beta     99.9327
_cell_angle_gamma    92.401

_symmetry_Int_Tables_number  2
_chemical_formula_structural  ZnCoPHO5
_chemical_formula_sum  Zn2Co2P2H2O0
_cell_volume  210.97209061102978
_cell_formula_units_Z  2
loop_
  _symmetry_equiv_pos_site_id
 _symmetry_equiv_pos_as_xyz
 1  'x, y, z'
loop_
 _atom_site_type_symbol
 _atom_site_label
 _atom_site_symmetry_multiplicity
 _atom_site_fract_x
 _atom_site_fract_y
 _atom_site_fract_z
 _atom_site_fract_occupancy
 Co  Co1  1  0.00000  0.00000  0.00000  1
 Co  Co2  1  0.00000  0.50000  0.00000  1
 H  H1  1  0.11329  0.26160  0.72465  1
 H  H2  1  0.88671  0.73840  0.27535  1
 O  O1  1  0.73199  0.25082  0.07718  1
 O  O2  1  0.40320  0.89601  0.63675  1
 O  O3  1  0.62124  0.55390  0.32286  1
 O  O4  1  0.96239  0.22564  0.78408  1
 O  O5  1  0.37876  0.44610  0.67714  1
 O  O6  1  0.73563  0.72581  0.87187  1
 O  O7  1  0.26801  0.74918  0.92282  1
 O  O8  1  0.59680  0.10399  0.36325  1
 O  O9  1  0.26437  0.27419  0.12813  1
 O  O10  1  0.03761  0.77436  0.21592  1
 P  P1  1  0.44571  0.70258  0.78110  1
 P  P2  1  0.55429  0.29742  0.21890  1
 Zn  Zn1  1  0.37194  0.79289  0.36758  1
 Zn  Zn2  1  0.62806  0.20711  0.63242  1
