CIF file written using JARVIS-Tools package.
data_Hf3Mg
_symmetry_space_group_name_H-M  'P6_3/mmc'
_cell_length_a       6.25933
_cell_length_b       6.25933
_cell_length_c       5.0499
_cell_angle_alpha    90
_cell_angle_beta     90
_cell_angle_gamma    120

_symmetry_Int_Tables_number  194
_chemical_formula_structural  Hf3Mg
_chemical_formula_sum  Hf6Mg2
_cell_volume  171.3439764304119
_cell_formula_units_Z  2
loop_
  _symmetry_equiv_pos_site_id
 _symmetry_equiv_pos_as_xyz
 1  'x, y, z'
loop_
 _atom_site_type_symbol
 _atom_site_label
 _atom_site_symmetry_multiplicity
 _atom_site_fract_x
 _atom_site_fract_y
 _atom_site_fract_z
 _atom_site_fract_occupancy
 Hf  Hf1  1  0.66468  0.83234  0.75000  1
 Hf  Hf2  1  0.16766  0.33532  0.75000  1
 Hf  Hf3  1  0.16766  0.83234  0.75000  1
 Hf  Hf4  1  0.83234  0.66468  0.25000  1
 Hf  Hf5  1  0.83234  0.16766  0.25000  1
 Hf  Hf6  1  0.33532  0.16766  0.25000  1
 Mg  Mg1  1  0.66667  0.33333  0.75000  1
 Mg  Mg2  1  0.33333  0.66667  0.25000  1
