CIF file written using JARVIS-Tools package.
data_SiN2F6
_symmetry_space_group_name_H-M  'Fm-3m'
_cell_length_a       5.2073
_cell_length_b       5.2073
_cell_length_c       5.2073
_cell_angle_alpha    60
_cell_angle_beta     60
_cell_angle_gamma    60

_symmetry_Int_Tables_number  225
_chemical_formula_structural  SiN2F6
_chemical_formula_sum  SiN2F6
_cell_volume  99.84442695185369
_cell_formula_units_Z  1
loop_
  _symmetry_equiv_pos_site_id
 _symmetry_equiv_pos_as_xyz
 1  'x, y, z'
loop_
 _atom_site_type_symbol
 _atom_site_label
 _atom_site_symmetry_multiplicity
 _atom_site_fract_x
 _atom_site_fract_y
 _atom_site_fract_z
 _atom_site_fract_occupancy
 F  F1  1  0.76771  0.23229  0.23229  1
 F  F2  1  0.76771  0.23229  0.76771  1
 F  F3  1  0.76771  0.76771  0.23229  1
 F  F4  1  0.23229  0.76771  0.76771  1
 F  F5  1  0.23229  0.76771  0.23229  1
 F  F6  1  0.23229  0.23229  0.76771  1
 N  N1  1  0.25000  0.25000  0.25000  1
 N  N2  1  0.75000  0.75000  0.75000  1
 Si  Si1  1  0.00000  0.00000  0.00000  1
