CIF file written using JARVIS-Tools package.
data_Rb2SeO4
_symmetry_space_group_name_H-M  'Pnma'
_cell_length_a       6.14839
_cell_length_b       7.99299
_cell_length_c       10.8066
_cell_angle_alpha    90
_cell_angle_beta     90
_cell_angle_gamma    90

_symmetry_Int_Tables_number  62
_chemical_formula_structural  Rb2SeO4
_chemical_formula_sum  Rb8Se4O6
_cell_volume  531.0776294606907
_cell_formula_units_Z  4
loop_
  _symmetry_equiv_pos_site_id
 _symmetry_equiv_pos_as_xyz
 1  'x, y, z'
loop_
 _atom_site_type_symbol
 _atom_site_label
 _atom_site_symmetry_multiplicity
 _atom_site_fract_x
 _atom_site_fract_y
 _atom_site_fract_z
 _atom_site_fract_occupancy
 O  O1  1  0.75000  0.52071  0.91740  1
 O  O2  1  0.47240  0.19696  0.15060  1
 O  O3  1  0.52760  0.30304  0.65060  1
 O  O4  1  0.02760  0.69696  0.34940  1
 O  O5  1  0.02760  0.19696  0.15060  1
 O  O6  1  0.52760  0.80304  0.84940  1
 O  O7  1  0.47240  0.69696  0.34940  1
 O  O8  1  0.97240  0.30304  0.65060  1
 O  O9  1  0.25000  0.19820  0.93320  1
 O  O10  1  0.75000  0.80180  0.06680  1
 O  O11  1  0.25000  0.69820  0.56680  1
 O  O12  1  0.75000  0.30180  0.43320  1
 O  O13  1  0.97240  0.80304  0.84940  1
 O  O14  1  0.25000  0.97929  0.41740  1
 O  O15  1  0.25000  0.47929  0.08260  1
 O  O16  1  0.75000  0.02071  0.58260  1
 Rb  Rb1  1  0.25000  0.33265  0.41087  1
 Rb  Rb2  1  0.25000  0.51095  0.79680  1
 Rb  Rb3  1  0.75000  0.48905  0.20320  1
 Rb  Rb4  1  0.25000  0.01095  0.70320  1
 Rb  Rb5  1  0.75000  0.98905  0.29680  1
 Rb  Rb6  1  0.25000  0.83265  0.08913  1
 Rb  Rb7  1  0.75000  0.16735  0.91087  1
 Rb  Rb8  1  0.75000  0.66735  0.58913  1
 Se  Se1  1  0.25000  0.27040  0.07922  1
 Se  Se2  1  0.75000  0.72960  0.92078  1
 Se  Se3  1  0.25000  0.77040  0.42078  1
 Se  Se4  1  0.75000  0.22960  0.57922  1
