CIF file written using JARVIS-Tools package.
data_GeClO2F5
_symmetry_space_group_name_H-M  'C222_1'
_cell_length_a       7.48184
_cell_length_b       8.29739
_cell_length_c       8.92757
_cell_angle_alpha    90
_cell_angle_beta     90
_cell_angle_gamma    116.799

_symmetry_Int_Tables_number  20
_chemical_formula_structural  GeClO2F5
_chemical_formula_sum  Ge4Cl4O8F20
_cell_volume  494.696483100529
_cell_formula_units_Z  4
loop_
  _symmetry_equiv_pos_site_id
 _symmetry_equiv_pos_as_xyz
 1  'x, y, z'
loop_
 _atom_site_type_symbol
 _atom_site_label
 _atom_site_symmetry_multiplicity
 _atom_site_fract_x
 _atom_site_fract_y
 _atom_site_fract_z
 _atom_site_fract_occupancy
 Cl  Cl1  1  0.61150  0.22299  0.00000  1
 Cl  Cl2  1  0.72446  0.44891  0.50000  1
 Cl  Cl3  1  0.38850  0.77701  0.50000  1
 Cl  Cl4  1  0.27554  0.55109  0.00000  1
 F  F1  1  0.08027  0.72085  0.63381  1
 F  F2  1  0.36422  0.11566  0.61871  1
 F  F3  1  0.92006  0.84011  0.00000  1
 F  F4  1  0.59530  0.55735  0.09778  1
 F  F5  1  0.96206  0.55735  0.90222  1
 F  F6  1  0.75144  0.11566  0.38129  1
 F  F7  1  0.03794  0.44265  0.40222  1
 F  F8  1  0.24856  0.88434  0.88129  1
 F  F9  1  0.63578  0.88434  0.11871  1
 F  F10  1  0.74836  0.67614  0.75094  1
 F  F11  1  0.02211  -0.00000  0.75000  1
 F  F12  1  0.92778  0.67614  0.24906  1
 F  F13  1  0.25164  0.32386  0.25094  1
 F  F14  1  0.40470  0.44265  0.59778  1
 F  F15  1  0.07222  0.32386  0.74906  1
 F  F16  1  0.07994  0.15989  0.50000  1
 F  F17  1  0.35942  0.27915  0.86619  1
 F  F18  1  0.64058  0.72085  0.36619  1
 F  F19  1  0.97789  0.00000  0.25000  1
 F  F20  1  0.91973  0.27915  0.13381  1
 Ge  Ge1  1  -0.00128  0.76888  0.81571  1
 Ge  Ge2  1  0.00128  0.23112  0.31571  1
 Ge  Ge3  1  0.22984  0.23112  0.68429  1
 Ge  Ge4  1  0.77016  0.76888  0.18429  1
 O  O1  1  0.34550  0.87415  0.38648  1
 O  O2  1  0.52865  0.87415  0.61352  1
 O  O3  1  0.47135  0.12585  0.11352  1
 O  O4  1  0.60685  0.35083  0.37603  1
 O  O5  1  0.74398  0.35083  0.62397  1
 O  O6  1  0.25602  0.64917  0.12397  1
 O  O7  1  0.39315  0.64917  0.87603  1
 O  O8  1  0.65450  0.12585  0.88648  1
