CIF file written using JARVIS-Tools package.
data_TbSi2Ir2
_symmetry_space_group_name_H-M  'I4/mmm'
_cell_length_a       4.09959
_cell_length_b       4.09959
_cell_length_c       5.7705
_cell_angle_alpha    110.807
_cell_angle_beta     110.807
_cell_angle_gamma    90.0001

_symmetry_Int_Tables_number  139
_chemical_formula_structural  TbSi2Ir2
_chemical_formula_sum  TbSi2Ir2
_cell_volume  83.85688581400561
_cell_formula_units_Z  1
loop_
  _symmetry_equiv_pos_site_id
 _symmetry_equiv_pos_as_xyz
 1  'x, y, z'
loop_
 _atom_site_type_symbol
 _atom_site_label
 _atom_site_symmetry_multiplicity
 _atom_site_fract_x
 _atom_site_fract_y
 _atom_site_fract_z
 _atom_site_fract_occupancy
 Ir  Ir1  1  0.75000  0.25000  0.50000  1
 Ir  Ir2  1  0.25000  0.75000  0.50000  1
 Si  Si1  1  0.62131  0.62131  0.24263  1
 Si  Si2  1  0.37869  0.37869  0.75737  1
 Tb  Tb1  1  0.00000  0.00000  0.00000  1
