CIF file written using JARVIS-Tools package.
data_NbI5
_symmetry_space_group_name_H-M  'P-1'
_cell_length_a       7.04326
_cell_length_b       7.64113
_cell_length_c       10.385
_cell_angle_alpha    108.911
_cell_angle_beta     90.895
_cell_angle_gamma    116.36

_symmetry_Int_Tables_number  2
_chemical_formula_structural  NbI5
_chemical_formula_sum  Nb2I0
_cell_volume  465.29610884591733
_cell_formula_units_Z  2
loop_
  _symmetry_equiv_pos_site_id
 _symmetry_equiv_pos_as_xyz
 1  'x, y, z'
loop_
 _atom_site_type_symbol
 _atom_site_label
 _atom_site_symmetry_multiplicity
 _atom_site_fract_x
 _atom_site_fract_y
 _atom_site_fract_z
 _atom_site_fract_occupancy
 I  I1  1  0.87180  0.38913  0.14962  1
 I  I2  1  0.75059  0.80909  0.04621  1
 I  I3  1  0.31791  0.00414  0.25026  1
 I  I4  1  0.68209  0.99586  0.74974  1
 I  I5  1  0.24941  0.19091  0.95379  1
 I  I6  1  0.12820  0.61087  0.85038  1
 I  I7  1  0.46296  0.59379  0.33769  1
 I  I8  1  0.92406  0.18784  0.44335  1
 I  I9  1  0.53704  0.40621  0.66231  1
 I  I10  1  0.07594  0.81216  0.55665  1
 Nb  Nb1  1  0.10749  0.22348  0.22381  1
 Nb  Nb2  1  0.89251  0.77652  0.77619  1
