CIF file written using JARVIS-Tools package.
data_ScRe2O6
_symmetry_space_group_name_H-M  'P2_1/c'
_cell_length_a       4.85217
_cell_length_b       5.67207
_cell_length_c       7.56121
_cell_angle_alpha    97.8298
_cell_angle_beta     90
_cell_angle_gamma    90

_symmetry_Int_Tables_number  14
_chemical_formula_structural  ScRe2O6
_chemical_formula_sum  Sc2Re4O2
_cell_volume  206.15844890222635
_cell_formula_units_Z  2
loop_
  _symmetry_equiv_pos_site_id
 _symmetry_equiv_pos_as_xyz
 1  'x, y, z'
loop_
 _atom_site_type_symbol
 _atom_site_label
 _atom_site_symmetry_multiplicity
 _atom_site_fract_x
 _atom_site_fract_y
 _atom_site_fract_z
 _atom_site_fract_occupancy
 O  O1  1  0.71674  0.92282  0.24844  1
 O  O2  1  0.67807  0.32435  0.61679  1
 O  O3  1  0.76737  0.15712  0.93035  1
 O  O4  1  0.23263  0.84288  0.06965  1
 O  O5  1  0.17807  0.17565  0.38321  1
 O  O6  1  0.78326  0.42282  0.24844  1
 O  O7  1  0.21674  0.57718  0.75156  1
 O  O8  1  0.32193  0.67565  0.38321  1
 O  O9  1  0.26737  0.34288  0.06965  1
 O  O10  1  0.73263  0.65712  0.93035  1
 O  O11  1  0.82193  0.82435  0.61679  1
 O  O12  1  0.28326  0.07718  0.75156  1
 Re  Re1  1  0.50884  0.62937  0.15101  1
 Re  Re2  1  0.49116  0.37063  0.84899  1
 Re  Re3  1  0.99116  0.12937  0.15101  1
 Re  Re4  1  0.00884  0.87063  0.84899  1
 Sc  Sc1  1  0.00000  0.50000  0.50000  1
 Sc  Sc2  1  0.50000  -0.00000  0.50000  1
