CIF file written using JARVIS-Tools package.
data_Nd2PbSe4
_symmetry_space_group_name_H-M  'I-42d'
_cell_length_a       7.82711
_cell_length_b       7.82711
_cell_length_c       7.82711
_cell_angle_alpha    109.426
_cell_angle_beta     109.561
_cell_angle_gamma    109.426

_symmetry_Int_Tables_number  122
_chemical_formula_structural  Nd2PbSe4
_chemical_formula_sum  Nd4Pb2Se8
_cell_volume  369.13171926738073
_cell_formula_units_Z  2
loop_
  _symmetry_equiv_pos_site_id
 _symmetry_equiv_pos_as_xyz
 1  'x, y, z'
loop_
 _atom_site_type_symbol
 _atom_site_label
 _atom_site_symmetry_multiplicity
 _atom_site_fract_x
 _atom_site_fract_y
 _atom_site_fract_z
 _atom_site_fract_occupancy
 Nd  Nd1  1  0.25000  0.63304  0.38304  1
 Nd  Nd2  1  0.75000  0.86696  0.11696  1
 Nd  Nd3  1  0.61696  0.36696  0.25000  1
 Nd  Nd4  1  0.88304  0.13304  0.75000  1
 Pb  Pb1  1  0.12500  0.75000  0.87500  1
 Pb  Pb2  1  0.37500  0.25000  0.62500  1
 Se  Se1  1  0.99012  0.84797  0.49190  1
 Se  Se2  1  0.50810  0.99821  0.35607  1
 Se  Se3  1  0.14215  0.15203  0.14393  1
 Se  Se4  1  0.35785  0.50179  0.00988  1
 Se  Se5  1  0.50988  0.00179  0.85785  1
 Se  Se6  1  0.64393  0.65203  0.64215  1
 Se  Se7  1  0.85607  0.49821  0.00810  1
 Se  Se8  1  0.99190  0.34797  0.49012  1
