CIF file written using JARVIS-Tools package.
data_Ca2RuO4
_symmetry_space_group_name_H-M  'Cmce'
_cell_length_a       5.28286
_cell_length_b       5.28274
_cell_length_c       6.82238
_cell_angle_alpha    112.778
_cell_angle_beta     90
_cell_angle_gamma    90

_symmetry_Int_Tables_number  64
_chemical_formula_structural  Ca2RuO4
_chemical_formula_sum  Ca4Ru2O8
_cell_volume  175.5501048681083
_cell_formula_units_Z  2
loop_
  _symmetry_equiv_pos_site_id
 _symmetry_equiv_pos_as_xyz
 1  'x, y, z'
loop_
 _atom_site_type_symbol
 _atom_site_label
 _atom_site_symmetry_multiplicity
 _atom_site_fract_x
 _atom_site_fract_y
 _atom_site_fract_z
 _atom_site_fract_occupancy
 Ca  Ca1  1  0.00000  0.34640  0.69280  1
 Ca  Ca2  1  0.50000  0.15360  0.30720  1
 Ca  Ca3  1  0.50000  0.84640  0.69280  1
 Ca  Ca4  1  0.00000  0.65360  0.30720  1
 O  O1  1  0.50000  0.66582  0.33163  1
 O  O2  1  0.00000  0.83418  0.66837  1
 O  O3  1  0.50000  0.33418  0.66837  1
 O  O4  1  0.00000  0.16582  0.33163  1
 O  O5  1  0.68269  0.18269  -0.00000  1
 O  O6  1  0.18269  0.31731  0.00000  1
 O  O7  1  0.31731  0.81731  0.00000  1
 O  O8  1  0.81731  0.68269  -0.00000  1
 Ru  Ru1  1  0.00000  0.00000  0.00000  1
 Ru  Ru2  1  0.50000  0.50000  -0.00000  1
