CIF file written using JARVIS-Tools package.
data_Hg3AsO4
_symmetry_space_group_name_H-M  'P2_1/c'
_cell_length_a       5.24472
_cell_length_b       8.964
_cell_length_c       12.1492
_cell_angle_alpha    95.5042
_cell_angle_beta     90
_cell_angle_gamma    90

_symmetry_Int_Tables_number  14
_chemical_formula_structural  Hg3AsO4
_chemical_formula_sum  Hg2As4O6
_cell_volume  568.5445652957956
_cell_formula_units_Z  4
loop_
  _symmetry_equiv_pos_site_id
 _symmetry_equiv_pos_as_xyz
 1  'x, y, z'
loop_
 _atom_site_type_symbol
 _atom_site_label
 _atom_site_symmetry_multiplicity
 _atom_site_fract_x
 _atom_site_fract_y
 _atom_site_fract_z
 _atom_site_fract_occupancy
 As  As1  1  0.85737  0.54240  0.77694  1
 As  As2  1  0.14263  0.45760  0.22306  1
 As  As3  1  0.35737  0.95760  0.72306  1
 As  As4  1  0.64263  0.04240  0.27694  1
 Hg  Hg1  1  0.34687  0.54040  0.58194  1
 Hg  Hg2  1  0.83018  0.17894  0.62262  1
 Hg  Hg3  1  0.66215  0.31216  0.03595  1
 Hg  Hg4  1  0.83785  0.81216  0.53595  1
 Hg  Hg5  1  0.84687  0.95960  0.91806  1
 Hg  Hg6  1  0.16215  0.18784  0.46405  1
 Hg  Hg7  1  0.33018  0.32106  0.87738  1
 Hg  Hg8  1  0.16982  0.82106  0.37738  1
 Hg  Hg9  1  0.66982  0.67894  0.12262  1
 Hg  Hg10  1  0.65313  0.45960  0.41806  1
 Hg  Hg11  1  0.15313  0.04040  0.08194  1
 Hg  Hg12  1  0.33785  0.68784  0.96405  1
 O  O1  1  0.97094  0.03751  0.27345  1
 O  O2  1  0.52906  0.53751  0.77345  1
 O  O3  1  0.02906  0.96249  0.72655  1
 O  O4  1  0.04791  0.33556  0.11137  1
 O  O5  1  0.54791  0.16444  0.38863  1
 O  O6  1  0.95209  0.66444  0.88863  1
 O  O7  1  0.45209  0.83556  0.61137  1
 O  O8  1  0.96619  0.59965  0.65310  1
 O  O9  1  0.46850  0.13934  0.71107  1
 O  O10  1  0.46619  0.90035  0.84690  1
 O  O11  1  0.03150  0.63934  0.21107  1
 O  O12  1  0.53150  0.86066  0.28893  1
 O  O13  1  0.47094  0.46249  0.22655  1
 O  O14  1  -0.03150  0.36066  0.78893  1
 O  O15  1  0.03381  0.40035  0.34690  1
 O  O16  1  0.53381  0.09965  0.15310  1
