CIF file written using JARVIS-Tools package.
data_LiCrSiO4
_symmetry_space_group_name_H-M  'Pnma'
_cell_length_a       4.73705
_cell_length_b       5.70799
_cell_length_c       10.0747
_cell_angle_alpha    90
_cell_angle_beta     90
_cell_angle_gamma    90

_symmetry_Int_Tables_number  62
_chemical_formula_structural  LiCrSiO4
_chemical_formula_sum  Li4Cr4Si4O6
_cell_volume  272.41056173513766
_cell_formula_units_Z  4
loop_
  _symmetry_equiv_pos_site_id
 _symmetry_equiv_pos_as_xyz
 1  'x, y, z'
loop_
 _atom_site_type_symbol
 _atom_site_label
 _atom_site_symmetry_multiplicity
 _atom_site_fract_x
 _atom_site_fract_y
 _atom_site_fract_z
 _atom_site_fract_occupancy
 Cr  Cr1  1  0.00188  0.00655  0.23196  1
 Cr  Cr2  1  0.49812  0.00655  0.73196  1
 Cr  Cr3  1  0.50188  0.50655  0.26804  1
 Cr  Cr4  1  -0.00188  0.50655  0.76804  1
 Li  Li1  1  -0.00001  0.25641  0.50008  1
 Li  Li2  1  0.50001  0.25641  0.00008  1
 Li  Li3  1  0.49999  0.75641  0.99992  1
 Li  Li4  1  0.00001  0.75641  0.49992  1
 O  O1  1  0.22243  0.28631  0.17199  1
 O  O2  1  0.27758  0.72678  0.67200  1
 O  O3  1  0.28266  0.00654  0.90112  1
 O  O4  1  0.19013  0.50655  0.94192  1
 O  O5  1  0.22242  0.72678  0.17200  1
 O  O6  1  0.77757  0.78631  0.82801  1
 O  O7  1  0.30987  0.50655  0.44192  1
 O  O8  1  0.21734  0.00654  0.40112  1
 O  O9  1  0.69013  0.00655  0.55808  1
 O  O10  1  0.78266  0.50654  0.59888  1
 O  O11  1  0.72242  0.22678  0.32800  1
 O  O12  1  0.71734  0.50654  0.09888  1
 O  O13  1  0.27757  0.28631  0.67199  1
 O  O14  1  0.77758  0.22678  0.82800  1
 O  O15  1  0.72243  0.78631  0.32801  1
 O  O16  1  0.80987  0.00655  0.05808  1
 Si  Si1  1  0.05877  0.50655  0.09207  1
 Si  Si2  1  0.44123  0.50655  0.59207  1
 Si  Si3  1  0.55877  0.00655  0.40793  1
 Si  Si4  1  0.94123  0.00655  0.90793  1
