CIF file written using JARVIS-Tools package.
data_LaMg4Cu
_symmetry_space_group_name_H-M  'P-62m'
_cell_length_a       10.3149
_cell_length_b       10.3149
_cell_length_c       4.47965
_cell_angle_alpha    90
_cell_angle_beta     90
_cell_angle_gamma    120

_symmetry_Int_Tables_number  189
_chemical_formula_structural  LaMg4Cu
_chemical_formula_sum  La3Mg2Cu3
_cell_volume  412.7702615020709
_cell_formula_units_Z  3
loop_
  _symmetry_equiv_pos_site_id
 _symmetry_equiv_pos_as_xyz
 1  'x, y, z'
loop_
 _atom_site_type_symbol
 _atom_site_label
 _atom_site_symmetry_multiplicity
 _atom_site_fract_x
 _atom_site_fract_y
 _atom_site_fract_z
 _atom_site_fract_occupancy
 Cu  Cu1  1  0.33333  0.66667  0.00000  1
 Cu  Cu2  1  0.00000  0.00000  0.00000  1
 Cu  Cu3  1  0.66667  0.33333  0.00000  1
 La  La1  1  -0.00000  0.40779  0.00000  1
 La  La2  1  0.59221  0.59221  0.00000  1
 La  La3  1  0.40779  0.00000  0.00000  1
 Mg  Mg1  1  0.25273  0.25273  0.00000  1
 Mg  Mg2  1  0.81597  0.52055  0.50000  1
 Mg  Mg3  1  0.00000  0.74727  0.00000  1
 Mg  Mg4  1  0.18403  0.70458  0.50000  1
 Mg  Mg5  1  -0.00000  0.16616  0.50000  1
 Mg  Mg6  1  0.83384  0.83384  0.50000  1
 Mg  Mg7  1  0.70458  0.18403  0.50000  1
 Mg  Mg8  1  0.47945  0.29542  0.50000  1
 Mg  Mg9  1  0.29542  0.47945  0.50000  1
 Mg  Mg10  1  0.52055  0.81597  0.50000  1
 Mg  Mg11  1  0.74727  -0.00000  0.00000  1
 Mg  Mg12  1  0.16616  0.00000  0.50000  1
