CIF file written using JARVIS-Tools package.
data_LuAlNi
_symmetry_space_group_name_H-M  'P-62m'
_cell_length_a       3.76506
_cell_length_b       6.89986
_cell_length_c       6.89992
_cell_angle_alpha    120
_cell_angle_beta     90
_cell_angle_gamma    90

_symmetry_Int_Tables_number  189
_chemical_formula_structural  LuAlNi
_chemical_formula_sum  Lu3Al3Ni3
_cell_volume  155.2342853633624
_cell_formula_units_Z  3
loop_
  _symmetry_equiv_pos_site_id
 _symmetry_equiv_pos_as_xyz
 1  'x, y, z'
loop_
 _atom_site_type_symbol
 _atom_site_label
 _atom_site_symmetry_multiplicity
 _atom_site_fract_x
 _atom_site_fract_y
 _atom_site_fract_z
 _atom_site_fract_occupancy
 Al  Al1  1  0.00000  0.24075  -0.00000  1
 Al  Al2  1  0.00000  0.75921  0.75921  1
 Al  Al3  1  0.00000  -0.00000  0.24079  1
 Lu  Lu1  1  0.50000  0.58470  0.00000  1
 Lu  Lu2  1  0.50000  0.41529  0.41530  1
 Lu  Lu3  1  0.50000  -0.00001  0.58470  1
 Ni  Ni1  1  0.00000  0.33333  0.66667  1
 Ni  Ni2  1  0.00000  0.66666  0.33333  1
 Ni  Ni3  1  0.50000  0.99998  -0.00000  1
