CIF file written using JARVIS-Tools package.
data_C2SeN2
_symmetry_space_group_name_H-M  'P1'
_cell_length_a       6.71046
_cell_length_b       8.43797
_cell_length_c       12.6003
_cell_angle_alpha    90
_cell_angle_beta     90
_cell_angle_gamma    90

_symmetry_Int_Tables_number  1
_chemical_formula_structural  C2SeN2
_chemical_formula_sum  C6Se8N6
_cell_volume  713.4631072797431
_cell_formula_units_Z  8
loop_
  _symmetry_equiv_pos_site_id
 _symmetry_equiv_pos_as_xyz
 1  'x, y, z'
loop_
 _atom_site_type_symbol
 _atom_site_label
 _atom_site_symmetry_multiplicity
 _atom_site_fract_x
 _atom_site_fract_y
 _atom_site_fract_z
 _atom_site_fract_occupancy
 C  C1  1  0.72592  0.68675  0.63637  1
 C  C2  1  0.41180  0.10625  0.11134  1
 C  C3  1  0.77408  0.18675  0.36363  1
 C  C4  1  0.34237  0.01459  0.62406  1
 C  C5  1  0.22592  0.81325  0.63637  1
 C  C6  1  0.58820  0.89375  0.88866  1
 C  C7  1  0.77408  0.68675  0.13637  1
 C  C8  1  0.27408  0.81325  0.13637  1
 C  C9  1  0.91180  0.89375  0.38866  1
 C  C10  1  0.65763  0.48541  0.12406  1
 C  C11  1  0.15763  0.01459  0.12406  1
 C  C12  1  0.65763  0.98541  0.37594  1
 C  C13  1  0.84237  0.98541  0.87594  1
 C  C14  1  0.15763  0.51459  0.37594  1
 C  C15  1  0.84237  0.48541  0.62406  1
 C  C16  1  0.34237  0.51459  0.87594  1
 N  N1  1  0.65560  0.81252  0.64335  1
 N  N2  1  0.84440  0.31252  0.35665  1
 N  N3  1  0.15560  0.68748  0.64335  1
 N  N4  1  0.06434  0.82869  0.39618  1
 N  N5  1  0.15560  0.18748  0.85665  1
 N  N6  1  0.84440  0.81252  0.14335  1
 N  N7  1  0.34440  0.18748  0.35665  1
 N  N8  1  0.43566  0.32869  0.60382  1
 N  N9  1  0.06434  0.32869  0.10382  1
 N  N10  1  0.93566  0.17131  0.60382  1
 N  N11  1  0.43566  0.82869  0.89618  1
 N  N12  1  0.93566  0.67131  0.89618  1
 N  N13  1  0.56434  0.67131  0.39618  1
 N  N14  1  0.34440  0.68748  0.14335  1
 N  N15  1  0.56434  0.17131  0.10382  1
 N  N16  1  0.65560  0.31252  0.85665  1
 Se  Se1  1  0.58820  0.39375  0.61134  1
 Se  Se2  1  0.08820  0.10625  0.61134  1
 Se  Se3  1  0.41180  0.60625  0.38866  1
 Se  Se4  1  0.08820  0.60625  0.88866  1
 Se  Se5  1  0.27408  0.31325  0.36363  1
 Se  Se6  1  0.72592  0.18675  0.86363  1
 Se  Se7  1  0.22592  0.31325  0.86363  1
 Se  Se8  1  0.91180  0.39375  0.11134  1
