CIF file written using JARVIS-Tools package.
data_Sr3B6Rh8
_symmetry_space_group_name_H-M  'Fmmm'
_cell_length_a       5.6063
_cell_length_b       5.74001
_cell_length_c       9.04874
_cell_angle_alpha    81.2987
_cell_angle_beta     71.9538
_cell_angle_gamma    60.7676

_symmetry_Int_Tables_number  69
_chemical_formula_structural  Sr3B6Rh8
_chemical_formula_sum  Sr3B6Rh8
_cell_volume  241.60621882721975
_cell_formula_units_Z  1
loop_
  _symmetry_equiv_pos_site_id
 _symmetry_equiv_pos_as_xyz
 1  'x, y, z'
loop_
 _atom_site_type_symbol
 _atom_site_label
 _atom_site_symmetry_multiplicity
 _atom_site_fract_x
 _atom_site_fract_y
 _atom_site_fract_z
 _atom_site_fract_occupancy
 B  B1  1  0.16455  0.67090  0.00000  1
 B  B2  1  0.33400  0.67107  0.66094  1
 B  B3  1  0.66600  0.32893  0.33906  1
 B  B4  1  0.83545  0.32910  0.00000  1
 B  B5  1  0.00506  0.32893  0.66094  1
 B  B6  1  0.99494  0.67107  0.33906  1
 Rh  Rh1  1  0.08426  0.50000  0.83149  1
 Rh  Rh2  1  0.75000  0.50000  0.50000  1
 Rh  Rh3  1  0.91574  0.50000  0.16851  1
 Rh  Rh4  1  0.91270  0.00000  0.17460  1
 Rh  Rh5  1  0.08730  0.00000  0.82540  1
 Rh  Rh6  1  0.25000  0.50000  0.50000  1
 Rh  Rh7  1  0.58426  0.50000  0.83149  1
 Rh  Rh8  1  0.41574  0.50000  0.16851  1
 Sr  Sr1  1  0.68311  0.00000  0.63378  1
 Sr  Sr2  1  0.50000  0.00000  0.00000  1
 Sr  Sr3  1  0.31689  0.00000  0.36622  1
