CIF file written using JARVIS-Tools package.
data_Ho4Ga16Co3
_symmetry_space_group_name_H-M  'P4/mmm'
_cell_length_a       5.9994
_cell_length_b       5.9994
_cell_length_c       11.0691
_cell_angle_alpha    90
_cell_angle_beta     90
_cell_angle_gamma    90

_symmetry_Int_Tables_number  123
_chemical_formula_structural  Ho4Ga16Co3
_chemical_formula_sum  Ho4Ga6Co3
_cell_volume  398.40697310091184
_cell_formula_units_Z  1
loop_
  _symmetry_equiv_pos_site_id
 _symmetry_equiv_pos_as_xyz
 1  'x, y, z'
loop_
 _atom_site_type_symbol
 _atom_site_label
 _atom_site_symmetry_multiplicity
 _atom_site_fract_x
 _atom_site_fract_y
 _atom_site_fract_z
 _atom_site_fract_occupancy
 Co  Co1  1  0.00000  0.00000  0.00000  1
 Co  Co2  1  0.00000  0.50000  0.50000  1
 Co  Co3  1  0.50000  0.00000  0.50000  1
 Ga  Ga1  1  0.00000  0.00000  0.21808  1
 Ga  Ga2  1  0.00000  0.00000  0.78192  1
 Ga  Ga3  1  0.50000  0.50000  0.19522  1
 Ga  Ga4  1  0.50000  0.50000  0.80478  1
 Ga  Ga5  1  0.28048  0.28048  0.00000  1
 Ga  Ga6  1  0.71952  0.71952  0.00000  1
 Ga  Ga7  1  0.28048  0.71952  0.00000  1
 Ga  Ga8  1  0.71952  0.28048  0.00000  1
 Ga  Ga9  1  0.24963  0.24963  0.38418  1
 Ga  Ga10  1  0.24963  0.75037  0.61582  1
 Ga  Ga11  1  0.75037  0.24963  0.61582  1
 Ga  Ga12  1  0.75037  0.75037  0.61582  1
 Ga  Ga13  1  0.24963  0.24963  0.61582  1
 Ga  Ga14  1  0.24963  0.75037  0.38418  1
 Ga  Ga15  1  0.75037  0.24963  0.38418  1
 Ga  Ga16  1  0.75037  0.75037  0.38418  1
 Ho  Ho1  1  0.50000  0.00000  0.19535  1
 Ho  Ho2  1  0.50000  0.00000  0.80465  1
 Ho  Ho3  1  0.00000  0.50000  0.80465  1
 Ho  Ho4  1  0.00000  0.50000  0.19535  1
