CIF file written using JARVIS-Tools package.
data_Rb3Bi
_symmetry_space_group_name_H-M  'P6_3/mmc'
_cell_length_a       6.43241
_cell_length_b       6.43241
_cell_length_c       11.3702
_cell_angle_alpha    90
_cell_angle_beta     90
_cell_angle_gamma    120

_symmetry_Int_Tables_number  194
_chemical_formula_structural  Rb3Bi
_chemical_formula_sum  Rb6Bi2
_cell_volume  407.42324255598265
_cell_formula_units_Z  2
loop_
  _symmetry_equiv_pos_site_id
 _symmetry_equiv_pos_as_xyz
 1  'x, y, z'
loop_
 _atom_site_type_symbol
 _atom_site_label
 _atom_site_symmetry_multiplicity
 _atom_site_fract_x
 _atom_site_fract_y
 _atom_site_fract_z
 _atom_site_fract_occupancy
 Bi  Bi1  1  0.66667  0.33333  0.75000  1
 Bi  Bi2  1  0.33333  0.66667  0.25000  1
 Rb  Rb1  1  0.33333  0.66667  0.91798  1
 Rb  Rb2  1  0.66667  0.33333  0.41798  1
 Rb  Rb3  1  0.00000  0.00000  0.25000  1
 Rb  Rb4  1  0.66667  0.33333  0.08202  1
 Rb  Rb5  1  0.00000  0.00000  0.75000  1
 Rb  Rb6  1  0.33333  0.66667  0.58202  1
