CIF file written using JARVIS-Tools package.
data_Na3CoO3
_symmetry_space_group_name_H-M  'P-1'
_cell_length_a       5.72445
_cell_length_b       5.88518
_cell_length_c       6.35091
_cell_angle_alpha    115.379
_cell_angle_beta     89.2204
_cell_angle_gamma    94.5048

_symmetry_Int_Tables_number  2
_chemical_formula_structural  Na3CoO3
_chemical_formula_sum  Na6Co2O6
_cell_volume  192.66475487498352
_cell_formula_units_Z  2
loop_
  _symmetry_equiv_pos_site_id
 _symmetry_equiv_pos_as_xyz
 1  'x, y, z'
loop_
 _atom_site_type_symbol
 _atom_site_label
 _atom_site_symmetry_multiplicity
 _atom_site_fract_x
 _atom_site_fract_y
 _atom_site_fract_z
 _atom_site_fract_occupancy
 Co  Co1  1  0.36152  0.80673  0.30766  1
 Co  Co2  1  0.63848  0.19327  0.69234  1
 Na  Na1  1  0.56333  0.25743  0.25709  1
 Na  Na2  1  0.43667  0.74257  0.74291  1
 Na  Na3  1  0.05898  0.22828  0.44329  1
 Na  Na4  1  0.94102  0.77172  0.55671  1
 Na  Na5  1  0.85582  0.76453  0.02008  1
 Na  Na6  1  0.14418  0.23547  0.97992  1
 O  O1  1  0.25559  0.52845  0.34676  1
 O  O2  1  0.74441  0.47155  0.65324  1
 O  O3  1  0.24481  0.90458  0.09756  1
 O  O4  1  0.75519  0.09542  0.90244  1
 O  O5  1  0.30668  0.07692  0.62546  1
 O  O6  1  0.69332  0.92308  0.37454  1
