CIF file written using JARVIS-Tools package.
data_CaTcO3
_symmetry_space_group_name_H-M  'R-3c'
_cell_length_a       5.43113
_cell_length_b       5.43095
_cell_length_c       5.43085
_cell_angle_alpha    61.3133
_cell_angle_beta     61.3116
_cell_angle_gamma    61.3138

_symmetry_Int_Tables_number  167
_chemical_formula_structural  CaTcO3
_chemical_formula_sum  Ca2Tc2O6
_cell_volume  116.61364689524548
_cell_formula_units_Z  2
loop_
  _symmetry_equiv_pos_site_id
 _symmetry_equiv_pos_as_xyz
 1  'x, y, z'
loop_
 _atom_site_type_symbol
 _atom_site_label
 _atom_site_symmetry_multiplicity
 _atom_site_fract_x
 _atom_site_fract_y
 _atom_site_fract_z
 _atom_site_fract_occupancy
 Ca  Ca1  1  0.25576  0.25576  0.25576  1
 Ca  Ca2  1  0.75576  0.75576  0.75576  1
 O  O1  1  0.25569  0.83679  0.67459  1
 O  O2  1  0.83679  0.67459  0.25564  1
 O  O3  1  0.67462  0.25566  0.83678  1
 O  O4  1  0.17459  0.33679  0.75569  1
 O  O5  1  0.75564  0.17459  0.33680  1
 O  O6  1  0.33677  0.75567  0.17460  1
 Tc  Tc1  1  0.00570  0.00570  0.00570  1
 Tc  Tc2  1  0.50569  0.50569  0.50569  1
