CIF file written using JARVIS-Tools package.
data_H3ClO5
_symmetry_space_group_name_H-M  'Pm'
_cell_length_a       9.07176
_cell_length_b       5.53878
_cell_length_c       6.93875
_cell_angle_alpha    90
_cell_angle_beta     93.847
_cell_angle_gamma    90

_symmetry_Int_Tables_number  6
_chemical_formula_structural  H3ClO5
_chemical_formula_sum  H2Cl4O20
_cell_volume  347.8622785064296
_cell_formula_units_Z  4
loop_
  _symmetry_equiv_pos_site_id
 _symmetry_equiv_pos_as_xyz
 1  'x, y, z'
loop_
 _atom_site_type_symbol
 _atom_site_label
 _atom_site_symmetry_multiplicity
 _atom_site_fract_x
 _atom_site_fract_y
 _atom_site_fract_z
 _atom_site_fract_occupancy
 Cl  Cl1  1  0.56441  0.75000  0.81957  1
 Cl  Cl2  1  0.42566  0.25000  0.19329  1
 Cl  Cl3  1  0.94438  0.25000  0.31660  1
 Cl  Cl4  1  0.06046  0.75000  0.70304  1
 H  H1  1  0.30504  0.25000  0.83191  1
 H  H2  1  0.21774  0.25000  0.59862  1
 H  H3  1  0.40534  0.25000  0.62994  1
 H  H4  1  0.70658  0.25000  0.84261  1
 H  H5  1  0.16154  0.89331  0.06532  1
 H  H6  1  0.88298  0.25000  0.93763  1
 H  H7  1  0.79062  0.75000  0.40738  1
 H  H8  1  0.68689  0.75000  0.18380  1
 H  H9  1  0.60465  0.75000  0.40369  1
 H  H10  1  0.28599  0.75000  0.20811  1
 H  H11  1  0.16154  0.60669  0.06532  1
 H  H12  1  0.84368  0.25000  0.68578  1
 O  O1  1  0.42813  0.75000  0.91770  1
 O  O2  1  0.83199  0.25000  0.46141  1
 O  O3  1  0.81269  0.25000  0.82402  1
 O  O4  1  0.17028  0.75000  0.56279  1
 O  O5  1  0.69314  0.75000  0.96296  1
 O  O6  1  0.09255  0.25000  0.41257  1
 O  O7  1  0.55799  0.25000  0.08782  1
 O  O8  1  0.91066  0.75000  0.61119  1
 O  O9  1  0.29137  0.25000  0.05425  1
 O  O10  1  0.69363  0.75000  0.33180  1
 O  O11  1  0.57367  0.96413  0.69681  1
 O  O12  1  0.07746  0.96654  0.82790  1
 O  O13  1  0.57367  0.53587  0.69681  1
 O  O14  1  0.92427  0.46346  0.19503  1
 O  O15  1  0.41831  0.03500  0.31438  1
 O  O16  1  0.18269  0.75000  0.15150  1
 O  O17  1  0.92427  0.03654  0.19503  1
 O  O18  1  0.07746  0.53346  0.82790  1
 O  O19  1  0.41831  0.46500  0.31438  1
 O  O20  1  0.30933  0.25000  0.68581  1
