CIF file written using JARVIS-Tools package.
data_CdPdF6
_symmetry_space_group_name_H-M  'R-3'
_cell_length_a       5.67068
_cell_length_b       5.67068
_cell_length_c       5.67068
_cell_angle_alpha    53.3183
_cell_angle_beta     53.3183
_cell_angle_gamma    53.3183

_symmetry_Int_Tables_number  148
_chemical_formula_structural  CdPdF6
_chemical_formula_sum  CdPdF6
_cell_volume  108.76887115808411
_cell_formula_units_Z  1
loop_
  _symmetry_equiv_pos_site_id
 _symmetry_equiv_pos_as_xyz
 1  'x, y, z'
loop_
 _atom_site_type_symbol
 _atom_site_label
 _atom_site_symmetry_multiplicity
 _atom_site_fract_x
 _atom_site_fract_y
 _atom_site_fract_z
 _atom_site_fract_occupancy
 Cd  Cd1  1  0.50000  0.50000  0.50000  1
 F  F1  1  0.39814  0.05442  0.78085  1
 F  F2  1  0.05442  0.78085  0.39814  1
 F  F3  1  0.21915  0.60186  0.94558  1
 F  F4  1  0.94558  0.21915  0.60186  1
 F  F5  1  0.60186  0.94558  0.21915  1
 F  F6  1  0.78085  0.39814  0.05442  1
 Pd  Pd1  1  0.00000  0.00000  0.00000  1
