CIF file written using JARVIS-Tools package.
data_NaVO3
_symmetry_space_group_name_H-M  'C2/c'
_cell_length_a       5.92918
_cell_length_b       7.13194
_cell_length_c       7.13194
_cell_angle_alpha    82.828
_cell_angle_beta     75.5318
_cell_angle_gamma    75.5318

_symmetry_Int_Tables_number  15
_chemical_formula_structural  NaVO3
_chemical_formula_sum  Na4V4O2
_cell_volume  282.13210519919016
_cell_formula_units_Z  4
loop_
  _symmetry_equiv_pos_site_id
 _symmetry_equiv_pos_as_xyz
 1  'x, y, z'
loop_
 _atom_site_type_symbol
 _atom_site_label
 _atom_site_symmetry_multiplicity
 _atom_site_fract_x
 _atom_site_fract_y
 _atom_site_fract_z
 _atom_site_fract_occupancy
 Na  Na1  1  0.24903  0.71359  0.28695  1
 Na  Na2  1  0.74903  0.28695  0.71359  1
 Na  Na3  1  0.24903  0.08627  0.91427  1
 Na  Na4  1  0.74903  0.91427  0.08627  1
 O  O1  1  0.04565  0.64158  0.65260  1
 O  O2  1  0.82735  0.89475  0.39131  1
 O  O3  1  0.32735  0.39131  0.89475  1
 O  O4  1  0.66379  0.97499  0.77161  1
 O  O5  1  0.16379  0.77161  0.97499  1
 O  O6  1  0.83427  0.22893  0.02555  1
 O  O7  1  0.33427  0.02555  0.22893  1
 O  O8  1  0.95240  0.35896  0.34794  1
 O  O9  1  0.67072  0.60923  0.10579  1
 O  O10  1  0.45240  0.34794  0.35896  1
 O  O11  1  0.54565  0.65260  0.64158  1
 O  O12  1  0.17072  0.10579  0.60923  1
 V  V1  1  0.76469  0.79824  0.61710  1
 V  V2  1  0.73337  0.38344  0.20230  1
 V  V3  1  0.23337  0.20230  0.38344  1
 V  V4  1  0.26469  0.61710  0.79824  1
