CIF file written using JARVIS-Tools package.
data_Ba4OF6
_symmetry_space_group_name_H-M  'P4_2/nmc'
_cell_length_a       8.77029
_cell_length_b       8.77029
_cell_length_c       6.30388
_cell_angle_alpha    90
_cell_angle_beta     90
_cell_angle_gamma    90

_symmetry_Int_Tables_number  137
_chemical_formula_structural  Ba4OF6
_chemical_formula_sum  Ba8O2F2
_cell_volume  484.88234386425523
_cell_formula_units_Z  2
loop_
  _symmetry_equiv_pos_site_id
 _symmetry_equiv_pos_as_xyz
 1  'x, y, z'
loop_
 _atom_site_type_symbol
 _atom_site_label
 _atom_site_symmetry_multiplicity
 _atom_site_fract_x
 _atom_site_fract_y
 _atom_site_fract_z
 _atom_site_fract_occupancy
 Ba  Ba1  1  0.50000  0.75412  0.79389  1
 Ba  Ba2  1  0.25412  0.00000  0.29389  1
 Ba  Ba3  1  0.74588  0.00000  0.29389  1
 Ba  Ba4  1  0.50000  0.24588  0.79389  1
 Ba  Ba5  1  0.00000  0.25412  0.70611  1
 Ba  Ba6  1  0.75412  0.50000  0.20611  1
 Ba  Ba7  1  0.24588  0.50000  0.20611  1
 Ba  Ba8  1  0.00000  0.74588  0.70611  1
 F  F1  1  0.27908  0.72092  0.50000  1
 F  F2  1  0.77908  0.77908  0.00000  1
 F  F3  1  0.50000  0.00000  0.03517  1
 F  F4  1  0.50000  0.00000  0.53517  1
 F  F5  1  0.22092  0.77908  0.00000  1
 F  F6  1  0.22092  0.22092  0.00000  1
 F  F7  1  0.00000  0.50000  0.96483  1
 F  F8  1  0.72092  0.27908  0.50000  1
 F  F9  1  0.00000  0.50000  0.46483  1
 F  F10  1  0.77908  0.22092  0.00000  1
 F  F11  1  0.27908  0.27908  0.50000  1
 F  F12  1  0.72092  0.72092  0.50000  1
 O  O1  1  0.50000  0.50000  0.00000  1
 O  O2  1  0.00000  0.00000  0.50000  1
