CIF file written using JARVIS-Tools package.
data_Li2VO2F
_symmetry_space_group_name_H-M  'C2/m'
_cell_length_a       5.80115
_cell_length_b       5.07077
_cell_length_c       4.06795
_cell_angle_alpha    113.648
_cell_angle_beta     90
_cell_angle_gamma    108.053

_symmetry_Int_Tables_number  12
_chemical_formula_structural  Li2VO2F
_chemical_formula_sum  Li4V2O4F2
_cell_volume  103.15264203220947
_cell_formula_units_Z  2
loop_
  _symmetry_equiv_pos_site_id
 _symmetry_equiv_pos_as_xyz
 1  'x, y, z'
loop_
 _atom_site_type_symbol
 _atom_site_label
 _atom_site_symmetry_multiplicity
 _atom_site_fract_x
 _atom_site_fract_y
 _atom_site_fract_z
 _atom_site_fract_occupancy
 F  F1  1  0.49871  0.97839  0.48919  1
 F  F2  1  0.16796  0.68828  0.84414  1
 Li  Li1  1  0.50015  -0.00182  -0.00091  1
 Li  Li2  1  0.16651  0.66848  0.33424  1
 Li  Li3  1  0.83333  0.33333  0.66667  1
 Li  Li4  1  0.33333  0.33333  0.66667  1
 O  O1  1  0.83333  0.33333  0.16667  1
 O  O2  1  0.33333  0.33333  0.16667  1
 O  O3  1  0.67788  0.67465  0.83732  1
 O  O4  1  0.98879  0.99202  0.49601  1
 V  V1  1  0.66575  0.63077  0.31538  1
 V  V2  1  0.00092  0.03590  0.01795  1
