CIF file written using JARVIS-Tools package.
data_Li2Mn2NiO6
_symmetry_space_group_name_H-M  'Cmce'
_cell_length_a       4.98375
_cell_length_b       4.98928
_cell_length_c       10.0151
_cell_angle_alpha    90
_cell_angle_beta     90
_cell_angle_gamma    119.963

_symmetry_Int_Tables_number  64
_chemical_formula_structural  Li2Mn2NiO6
_chemical_formula_sum  Li4Mn4Ni2O2
_cell_volume  215.74483569198617
_cell_formula_units_Z  2
loop_
  _symmetry_equiv_pos_site_id
 _symmetry_equiv_pos_as_xyz
 1  'x, y, z'
loop_
 _atom_site_type_symbol
 _atom_site_label
 _atom_site_symmetry_multiplicity
 _atom_site_fract_x
 _atom_site_fract_y
 _atom_site_fract_z
 _atom_site_fract_occupancy
 Li  Li1  1  0.16825  0.50000  0.25000  1
 Li  Li2  1  0.83175  0.50000  0.75000  1
 Li  Li3  1  0.33175  0.50000  0.75000  1
 Li  Li4  1  0.66825  0.50000  0.25000  1
 Mn  Mn1  1  0.16247  0.32495  0.50000  1
 Mn  Mn2  1  0.83753  0.67505  0.50000  1
 Mn  Mn3  1  0.66247  0.32495  0.00000  1
 Mn  Mn4  1  0.33753  0.67505  0.00000  1
 Ni  Ni1  1  0.50000  0.00000  0.50000  1
 Ni  Ni2  1  0.00000  0.00000  0.00000  1
 O  O1  1  0.49580  0.64206  0.39434  1
 O  O2  1  0.65416  0.00000  0.09986  1
 O  O3  1  0.50420  0.35794  0.60566  1
 O  O4  1  0.85374  0.35794  0.39434  1
 O  O5  1  0.15416  0.00000  0.40014  1
 O  O6  1  0.99580  0.64206  0.10566  1
 O  O7  1  0.84584  -0.00000  0.59986  1
 O  O8  1  0.34584  -0.00000  0.90014  1
 O  O9  1  0.00420  0.35794  0.89434  1
 O  O10  1  0.64626  0.64206  0.89434  1
 O  O11  1  0.35374  0.35794  0.10566  1
 O  O12  1  0.14626  0.64206  0.60566  1
