CIF file written using JARVIS-Tools package.
data_KMg6Ti
_symmetry_space_group_name_H-M  'P-6m2'
_cell_length_a       6.60054
_cell_length_b       6.60054
_cell_length_c       5.15463
_cell_angle_alpha    90
_cell_angle_beta     90
_cell_angle_gamma    119.983

_symmetry_Int_Tables_number  187
_chemical_formula_structural  KMg6Ti
_chemical_formula_sum  KMg6Ti
_cell_volume  194.51926822670242
_cell_formula_units_Z  1
loop_
  _symmetry_equiv_pos_site_id
 _symmetry_equiv_pos_as_xyz
 1  'x, y, z'
loop_
 _atom_site_type_symbol
 _atom_site_label
 _atom_site_symmetry_multiplicity
 _atom_site_fract_x
 _atom_site_fract_y
 _atom_site_fract_z
 _atom_site_fract_occupancy
 K  K1  1  0.41665  0.08335  0.75000  1
 Mg  Mg1  1  0.06463  0.90724  0.25000  1
 Mg  Mg2  1  0.59276  0.43537  0.25000  1
 Mg  Mg3  1  0.59267  0.90733  0.25000  1
 Mg  Mg4  1  0.39715  0.57358  0.75000  1
 Mg  Mg5  1  0.92642  0.10285  0.75000  1
 Mg  Mg6  1  0.92639  0.57361  0.75000  1
 Ti  Ti1  1  0.08333  0.41667  0.25000  1
