CIF file written using JARVIS-Tools package.
data_Ba2CaUO6
_symmetry_space_group_name_H-M  'P2_1/c'
_cell_length_a       6.20803
_cell_length_b       6.15908
_cell_length_c       10.6812
_cell_angle_alpha    90
_cell_angle_beta     125.415
_cell_angle_gamma    90

_symmetry_Int_Tables_number  14
_chemical_formula_structural  Ba2CaUO6
_chemical_formula_sum  Ba4Ca2U2O2
_cell_volume  332.8419283669558
_cell_formula_units_Z  2
loop_
  _symmetry_equiv_pos_site_id
 _symmetry_equiv_pos_as_xyz
 1  'x, y, z'
loop_
 _atom_site_type_symbol
 _atom_site_label
 _atom_site_symmetry_multiplicity
 _atom_site_fract_x
 _atom_site_fract_y
 _atom_site_fract_z
 _atom_site_fract_occupancy
 Ba  Ba1  1  0.24509  0.01698  0.25041  1
 Ba  Ba2  1  0.75491  0.51698  0.24959  1
 Ba  Ba3  1  0.75491  0.98302  0.74959  1
 Ba  Ba4  1  0.24509  0.48302  0.75041  1
 Ca  Ca1  1  0.50000  0.00000  -0.00000  1
 Ca  Ca2  1  0.50000  0.50000  0.50000  1
 O  O1  1  0.22032  0.78392  0.46372  1
 O  O2  1  0.17569  0.24106  0.96142  1
 O  O3  1  0.17569  0.25894  0.46142  1
 O  O4  1  0.77968  0.21608  0.53628  1
 O  O5  1  0.69454  0.51076  0.76430  1
 O  O6  1  0.82431  0.75894  0.03858  1
 O  O7  1  0.30546  0.01076  0.73570  1
 O  O8  1  0.77968  0.28392  0.03628  1
 O  O9  1  0.69454  0.98924  0.26430  1
 O  O10  1  0.30546  0.48924  0.23570  1
 O  O11  1  0.22032  0.71608  0.96372  1
 O  O12  1  0.82431  0.74106  0.53858  1
 U  U1  1  0.00000  0.50000  0.00000  1
 U  U2  1  -0.00000  0.00000  0.50000  1
