CIF file written using JARVIS-Tools package.
data_SrSn
_symmetry_space_group_name_H-M  'Cmcm'
_cell_length_a       4.53546
_cell_length_b       5.04976
_cell_length_c       6.54576
_cell_angle_alpha    112.689
_cell_angle_beta     90
_cell_angle_gamma    90

_symmetry_Int_Tables_number  63
_chemical_formula_structural  SrSn
_chemical_formula_sum  Sr2Sn2
_cell_volume  138.31582174866801
_cell_formula_units_Z  2
loop_
  _symmetry_equiv_pos_site_id
 _symmetry_equiv_pos_as_xyz
 1  'x, y, z'
loop_
 _atom_site_type_symbol
 _atom_site_label
 _atom_site_symmetry_multiplicity
 _atom_site_fract_x
 _atom_site_fract_y
 _atom_site_fract_z
 _atom_site_fract_occupancy
 Sn  Sn1  1  0.25000  0.58088  0.16175  1
 Sn  Sn2  1  0.75000  0.41912  0.83825  1
 Sr  Sr1  1  0.25000  0.86492  0.72985  1
 Sr  Sr2  1  0.75000  0.13508  0.27015  1
