CIF file written using JARVIS-Tools package.
data_PrVGe3
_symmetry_space_group_name_H-M  'P6_3/mmc'
_cell_length_a       6.28314
_cell_length_b       6.28321
_cell_length_c       5.66664
_cell_angle_alpha    90
_cell_angle_beta     90
_cell_angle_gamma    120

_symmetry_Int_Tables_number  194
_chemical_formula_structural  PrVGe3
_chemical_formula_sum  Pr2V2Ge6
_cell_volume  193.73846628268626
_cell_formula_units_Z  2
loop_
  _symmetry_equiv_pos_site_id
 _symmetry_equiv_pos_as_xyz
 1  'x, y, z'
loop_
 _atom_site_type_symbol
 _atom_site_label
 _atom_site_symmetry_multiplicity
 _atom_site_fract_x
 _atom_site_fract_y
 _atom_site_fract_z
 _atom_site_fract_occupancy
 Ge  Ge1  1  0.19397  0.38793  0.25000  1
 Ge  Ge2  1  0.19399  0.80602  0.25000  1
 Ge  Ge3  1  0.61203  0.80602  0.25000  1
 Ge  Ge4  1  0.38797  0.19398  0.75000  1
 Ge  Ge5  1  0.80601  0.19398  0.75000  1
 Ge  Ge6  1  0.80603  0.61207  0.75000  1
 Pr  Pr1  1  0.66669  0.33338  0.25000  1
 Pr  Pr2  1  0.33331  0.66662  0.75000  1
 V  V1  1  0.00000  0.00000  0.00000  1
 V  V2  1  0.00000  0.00000  0.50000  1
