CIF file written using JARVIS-Tools package.
data_AsCl5
_symmetry_space_group_name_H-M  'Pmmn'
_cell_length_a       6.19302
_cell_length_b       7.03315
_cell_length_c       7.61993
_cell_angle_alpha    90
_cell_angle_beta     90
_cell_angle_gamma    90

_symmetry_Int_Tables_number  59
_chemical_formula_structural  AsCl5
_chemical_formula_sum  As2Cl0
_cell_volume  331.8974155046163
_cell_formula_units_Z  2
loop_
  _symmetry_equiv_pos_site_id
 _symmetry_equiv_pos_as_xyz
 1  'x, y, z'
loop_
 _atom_site_type_symbol
 _atom_site_label
 _atom_site_symmetry_multiplicity
 _atom_site_fract_x
 _atom_site_fract_y
 _atom_site_fract_z
 _atom_site_fract_occupancy
 As  As1  1  0.83354  0.00000  0.50000  1
 As  As2  1  0.16646  0.50000  0.00000  1
 Cl  Cl1  1  0.83471  0.00000  0.20227  1
 Cl  Cl2  1  0.83471  0.00000  0.79773  1
 Cl  Cl3  1  0.35078  0.23503  0.00000  1
 Cl  Cl4  1  0.35078  0.76497  0.00000  1
 Cl  Cl5  1  0.64922  0.73503  0.50000  1
 Cl  Cl6  1  0.64922  0.26497  0.50000  1
 Cl  Cl7  1  0.81492  0.50000  0.00000  1
 Cl  Cl8  1  0.18508  0.00000  0.50000  1
 Cl  Cl9  1  0.16529  0.50000  0.70227  1
 Cl  Cl10  1  0.16529  0.50000  0.29773  1
