CIF file written using JARVIS-Tools package.
data_CaWO4
_symmetry_space_group_name_H-M  'I4_1/a'
_cell_length_a       5.27125
_cell_length_b       5.27131
_cell_length_c       6.80741
_cell_angle_alpha    112.78
_cell_angle_beta     112.776
_cell_angle_gamma    89.9947

_symmetry_Int_Tables_number  88
_chemical_formula_structural  CaWO4
_chemical_formula_sum  Ca2W2O8
_cell_volume  158.28401100466772
_cell_formula_units_Z  2
loop_
  _symmetry_equiv_pos_site_id
 _symmetry_equiv_pos_as_xyz
 1  'x, y, z'
loop_
 _atom_site_type_symbol
 _atom_site_label
 _atom_site_symmetry_multiplicity
 _atom_site_fract_x
 _atom_site_fract_y
 _atom_site_fract_z
 _atom_site_fract_occupancy
 Ca  Ca1  1  0.62500  0.87500  0.24999  1
 Ca  Ca2  1  0.37500  0.12500  0.75001  1
 O  O1  1  0.71890  0.86680  0.92326  1
 O  O2  1  0.05647  0.21891  0.42327  1
 O  O3  1  0.36680  0.70434  0.42326  1
 O  O4  1  0.20434  0.55647  0.92326  1
 O  O5  1  0.79566  0.44353  0.07674  1
 O  O6  1  0.63321  0.29566  0.57674  1
 O  O7  1  0.28110  0.13320  0.07674  1
 O  O8  1  0.94353  0.78109  0.57673  1
 W  W1  1  0.12501  0.37502  0.25001  1
 W  W2  1  0.87499  0.62499  0.74999  1
