CIF file written using JARVIS-Tools package.
data_Zn3B7ClO13
_symmetry_space_group_name_H-M  'R3c'
_cell_length_a       8.59955
_cell_length_b       8.59955
_cell_length_c       8.59954
_cell_angle_alpha    59.9566
_cell_angle_beta     59.9567
_cell_angle_gamma    59.9566

_symmetry_Int_Tables_number  161
_chemical_formula_structural  Zn3B7ClO13
_chemical_formula_sum  Zn6B4Cl2O26
_cell_volume  449.24624969328465
_cell_formula_units_Z  2
loop_
  _symmetry_equiv_pos_site_id
 _symmetry_equiv_pos_as_xyz
 1  'x, y, z'
loop_
 _atom_site_type_symbol
 _atom_site_label
 _atom_site_symmetry_multiplicity
 _atom_site_fract_x
 _atom_site_fract_y
 _atom_site_fract_z
 _atom_site_fract_occupancy
 B  B1  1  0.10263  0.10263  0.10263  1
 B  B2  1  0.76718  0.07359  0.07352  1
 B  B3  1  0.24783  0.24742  0.75387  1
 B  B4  1  0.26718  0.57352  0.57359  1
 B  B5  1  0.57359  0.26718  0.57352  1
 B  B6  1  0.60263  0.60263  0.60263  1
 B  B7  1  0.07359  0.07352  0.76718  1
 B  B8  1  0.07352  0.76718  0.07359  1
 B  B9  1  0.24742  0.75387  0.24783  1
 B  B10  1  0.57352  0.57359  0.26718  1
 B  B11  1  0.25387  0.74742  0.74783  1
 B  B12  1  0.74783  0.25387  0.74742  1
 B  B13  1  0.74742  0.74783  0.25387  1
 B  B14  1  0.75387  0.24783  0.24742  1
 Cl  Cl1  1  0.26653  0.26653  0.26653  1
 Cl  Cl2  1  0.76653  0.76653  0.76653  1
 O  O1  1  0.75083  0.59868  0.21458  1
 O  O2  1  0.59868  0.21458  0.75083  1
 O  O3  1  0.98903  0.98903  0.98903  1
 O  O4  1  0.94509  0.26531  0.10538  1
 O  O5  1  0.10538  0.94509  0.26531  1
 O  O6  1  0.26531  0.10538  0.94509  1
 O  O7  1  0.43574  0.75445  0.20138  1
 O  O8  1  0.76531  0.44509  0.60538  1
 O  O9  1  0.09868  0.25083  0.71458  1
 O  O10  1  0.25083  0.71458  0.09868  1
 O  O11  1  0.71458  0.09868  0.25083  1
 O  O12  1  0.61037  0.43450  0.19117  1
 O  O13  1  0.43450  0.19117  0.61037  1
 O  O14  1  0.21458  0.75083  0.59868  1
 O  O15  1  0.60538  0.76531  0.44509  1
 O  O16  1  0.48903  0.48903  0.48903  1
 O  O17  1  0.70138  0.25445  0.93574  1
 O  O18  1  0.75445  0.20138  0.43574  1
 O  O19  1  0.69117  0.93450  0.11037  1
 O  O20  1  0.93450  0.11037  0.69117  1
 O  O21  1  0.11037  0.69117  0.93450  1
 O  O22  1  0.19117  0.61037  0.43450  1
 O  O23  1  0.20138  0.43574  0.75445  1
 O  O24  1  0.25445  0.93574  0.70138  1
 O  O25  1  0.93574  0.70138  0.25445  1
 O  O26  1  0.44509  0.60538  0.76531  1
 Zn  Zn1  1  0.03431  0.47165  0.47298  1
 Zn  Zn2  1  0.97165  0.53431  0.97298  1
 Zn  Zn3  1  0.53431  0.97298  0.97165  1
 Zn  Zn4  1  0.97298  0.97165  0.53431  1
 Zn  Zn5  1  0.47298  0.03431  0.47165  1
 Zn  Zn6  1  0.47165  0.47298  0.03431  1
