CIF file written using JARVIS-Tools package.
data_NaVGe2O6
_symmetry_space_group_name_H-M  'C2/c'
_cell_length_a       5.45637
_cell_length_b       6.7149
_cell_length_c       6.71491
_cell_angle_alpha    82.7307
_cell_angle_beta     78.9752
_cell_angle_gamma    78.9752

_symmetry_Int_Tables_number  15
_chemical_formula_structural  NaVGe2O6
_chemical_formula_sum  Na2V2Ge4O2
_cell_volume  235.9941690646703
_cell_formula_units_Z  2
loop_
  _symmetry_equiv_pos_site_id
 _symmetry_equiv_pos_as_xyz
 1  'x, y, z'
loop_
 _atom_site_type_symbol
 _atom_site_label
 _atom_site_symmetry_multiplicity
 _atom_site_fract_x
 _atom_site_fract_y
 _atom_site_fract_z
 _atom_site_fract_occupancy
 Ge  Ge1  1  0.72432  0.30907  0.11311  1
 Ge  Ge2  1  0.22432  0.11311  0.30907  1
 Ge  Ge3  1  0.27568  0.69093  0.88689  1
 Ge  Ge4  1  0.77568  0.88689  0.69093  1
 Na  Na1  1  0.75000  0.80916  0.19084  1
 Na  Na2  1  0.25000  0.19084  0.80916  1
 O  O1  1  0.87176  0.69099  0.52225  1
 O  O2  1  0.12824  0.30901  0.47775  1
 O  O3  1  0.83156  0.40599  0.86316  1
 O  O4  1  0.47606  0.17130  0.10679  1
 O  O5  1  0.52394  0.82870  0.89321  1
 O  O6  1  -0.02394  0.10679  0.17130  1
 O  O7  1  0.16844  0.59401  0.13684  1
 O  O8  1  0.66844  0.13684  0.59401  1
 O  O9  1  0.02394  0.89321  0.82870  1
 O  O10  1  0.37176  0.52225  0.69099  1
 O  O11  1  0.33156  0.86316  0.40599  1
 O  O12  1  0.62824  0.47775  0.30901  1
 V  V1  1  0.75000  0.40957  0.59043  1
 V  V2  1  0.25000  0.59043  0.40957  1
