CIF file written using JARVIS-Tools package.
data_Ta6Si7Ni16
_symmetry_space_group_name_H-M  'Fm-3m'
_cell_length_a       7.96783
_cell_length_b       7.96782
_cell_length_c       7.96782
_cell_angle_alpha    60
_cell_angle_beta     60
_cell_angle_gamma    60

_symmetry_Int_Tables_number  225
_chemical_formula_structural  Ta6Si7Ni16
_chemical_formula_sum  Ta6Si7Ni6
_cell_volume  357.68747999261876
_cell_formula_units_Z  1
loop_
  _symmetry_equiv_pos_site_id
 _symmetry_equiv_pos_as_xyz
 1  'x, y, z'
loop_
 _atom_site_type_symbol
 _atom_site_label
 _atom_site_symmetry_multiplicity
 _atom_site_fract_x
 _atom_site_fract_y
 _atom_site_fract_z
 _atom_site_fract_occupancy
 Ni  Ni1  1  0.16660  0.16660  0.16660  1
 Ni  Ni2  1  0.49980  0.83340  0.83340  1
 Ni  Ni3  1  0.83340  0.49980  0.83340  1
 Ni  Ni4  1  0.50020  0.16660  0.16660  1
 Ni  Ni5  1  0.16660  0.50020  0.16660  1
 Ni  Ni6  1  0.16660  0.16660  0.50020  1
 Ni  Ni7  1  0.83340  0.83340  0.83340  1
 Ni  Ni8  1  0.61663  0.61663  0.15010  1
 Ni  Ni9  1  0.15010  0.61663  0.61663  1
 Ni  Ni10  1  0.61663  0.15010  0.61663  1
 Ni  Ni11  1  0.38337  0.84990  0.38337  1
 Ni  Ni12  1  0.38337  0.38337  0.84990  1
 Ni  Ni13  1  0.61663  0.61663  0.61663  1
 Ni  Ni14  1  0.84990  0.38337  0.38337  1
 Ni  Ni15  1  0.38337  0.38337  0.38337  1
 Ni  Ni16  1  0.83340  0.83340  0.49980  1
 Si  Si1  1  0.50000  0.00000  0.00000  1
 Si  Si2  1  0.00000  0.00000  0.50000  1
 Si  Si3  1  0.50000  0.50000  0.00000  1
 Si  Si4  1  0.00000  0.50000  0.50000  1
 Si  Si5  1  0.00000  0.50000  0.00000  1
 Si  Si6  1  0.50000  0.00000  0.50000  1
 Si  Si7  1  0.50000  0.50000  0.50000  1
 Ta  Ta1  1  0.79787  0.79787  0.20213  1
 Ta  Ta2  1  0.20213  0.79787  0.79787  1
 Ta  Ta3  1  0.20213  0.79787  0.20213  1
 Ta  Ta4  1  0.79787  0.20213  0.79787  1
 Ta  Ta5  1  0.20213  0.20213  0.79787  1
 Ta  Ta6  1  0.79787  0.20213  0.20213  1
