CIF file written using JARVIS-Tools package.
data_Ce3Th2O9
_symmetry_space_group_name_H-M  'Imm2'
_cell_length_a       3.91586
_cell_length_b       5.60856
_cell_length_c       10.4065
_cell_angle_alpha    105.637
_cell_angle_beta     100.844
_cell_angle_gamma    89.9987

_symmetry_Int_Tables_number  44
_chemical_formula_structural  Ce3Th2O9
_chemical_formula_sum  Ce3Th2O9
_cell_volume  215.85219960213513
_cell_formula_units_Z  1
loop_
  _symmetry_equiv_pos_site_id
 _symmetry_equiv_pos_as_xyz
 1  'x, y, z'
loop_
 _atom_site_type_symbol
 _atom_site_label
 _atom_site_symmetry_multiplicity
 _atom_site_fract_x
 _atom_site_fract_y
 _atom_site_fract_z
 _atom_site_fract_occupancy
 Ce  Ce1  1  0.39668  0.38823  0.79213  1
 Ce  Ce2  1  0.00066  0.03935  0.00005  1
 Ce  Ce3  1  0.60462  0.59616  0.20798  1
 O  O1  1  0.91231  0.67000  0.82342  1
 O  O2  1  0.30201  0.54520  0.60277  1
 O  O3  1  0.29983  0.04468  0.59843  1
 O  O4  1  0.08899  0.84665  0.17669  1
 O  O5  1  0.69931  0.94249  0.39734  1
 O  O6  1  0.89823  0.15553  0.79521  1
 O  O7  1  0.70146  0.44631  0.40167  1
 O  O8  1  0.10308  0.36038  0.20489  1
 O  O9  1  0.50065  0.26304  0.00005  1
 Th  Th1  1  0.19811  0.19316  0.39496  1
 Th  Th2  1  0.80319  0.79825  0.60514  1
