CIF file written using JARVIS-Tools package.
data_BNO2F4
_symmetry_space_group_name_H-M  'P2_1/c'
_cell_length_a       6.36627
_cell_length_b       6.74539
_cell_length_c       9.05793
_cell_angle_alpha    90
_cell_angle_beta     102.17
_cell_angle_gamma    90

_symmetry_Int_Tables_number  14
_chemical_formula_structural  BNO2F4
_chemical_formula_sum  B4N4O8F6
_cell_volume  380.23340645073375
_cell_formula_units_Z  4
loop_
  _symmetry_equiv_pos_site_id
 _symmetry_equiv_pos_as_xyz
 1  'x, y, z'
loop_
 _atom_site_type_symbol
 _atom_site_label
 _atom_site_symmetry_multiplicity
 _atom_site_fract_x
 _atom_site_fract_y
 _atom_site_fract_z
 _atom_site_fract_occupancy
 B  B1  1  0.25862  0.80533  0.50293  1
 B  B2  1  0.25862  0.69467  0.00293  1
 B  B3  1  0.74138  0.30533  0.99707  1
 B  B4  1  0.74138  0.19467  0.49707  1
 F  F1  1  0.78520  0.43142  0.88205  1
 F  F2  1  0.91683  0.17507  0.04528  1
 F  F3  1  0.44448  0.69144  0.56044  1
 F  F4  1  0.29089  0.91922  0.37816  1
 F  F5  1  0.21480  0.56858  0.11795  1
 F  F6  1  0.70911  0.41922  0.12184  1
 F  F7  1  0.44448  0.80856  0.06044  1
 F  F8  1  0.55552  0.19144  0.93956  1
 F  F9  1  0.21480  0.93142  0.61795  1
 F  F10  1  0.78520  0.06858  0.38205  1
 F  F11  1  0.70911  0.08078  0.62184  1
 F  F12  1  0.08317  0.67507  0.45472  1
 F  F13  1  0.08317  0.82493  0.95472  1
 F  F14  1  0.91683  0.32493  0.54528  1
 F  F15  1  0.29089  0.58078  0.87816  1
 F  F16  1  0.55552  0.30856  0.43956  1
 N  N1  1  0.76037  0.73988  0.25774  1
 N  N2  1  0.76037  0.76012  0.75774  1
 N  N3  1  0.23963  0.26012  0.74226  1
 N  N4  1  0.23963  0.23988  0.24226  1
 O  O1  1  0.65886  0.67389  0.33490  1
 O  O2  1  0.34114  0.17389  0.16510  1
 O  O3  1  0.86286  0.80555  0.18103  1
 O  O4  1  0.13714  0.30555  0.31897  1
 O  O5  1  0.13714  0.19445  0.81897  1
 O  O6  1  0.34114  0.32611  0.66510  1
 O  O7  1  0.65886  0.82611  0.83490  1
 O  O8  1  0.86286  0.69445  0.68103  1
