CIF file written using JARVIS-Tools package.
data_Hg6BiSb4Br7
_symmetry_space_group_name_H-M  'Pa-3'
_cell_length_a       13.2672
_cell_length_b       13.2672
_cell_length_c       13.2672
_cell_angle_alpha    90
_cell_angle_beta     90
_cell_angle_gamma    90

_symmetry_Int_Tables_number  205
_chemical_formula_structural  Hg6BiSb4Br7
_chemical_formula_sum  Hg24Bi4Sb6Br28
_cell_volume  2335.250450400659
_cell_formula_units_Z  4
loop_
  _symmetry_equiv_pos_site_id
 _symmetry_equiv_pos_as_xyz
 1  'x, y, z'
loop_
 _atom_site_type_symbol
 _atom_site_label
 _atom_site_symmetry_multiplicity
 _atom_site_fract_x
 _atom_site_fract_y
 _atom_site_fract_z
 _atom_site_fract_occupancy
 Bi  Bi1  1  0.50000  0.50000  0.50000  1
 Bi  Bi2  1  0.00000  0.50000  0.00000  1
 Bi  Bi3  1  0.00000  0.00000  0.50000  1
 Bi  Bi4  1  0.50000  0.00000  0.00000  1
 Br  Br1  1  0.50000  0.50000  0.00000  1
 Br  Br2  1  0.29247  0.54456  0.44426  1
 Br  Br3  1  0.20753  0.04456  0.44426  1
 Br  Br4  1  0.20753  0.45544  0.94426  1
 Br  Br5  1  0.94426  0.29247  0.95544  1
 Br  Br6  1  0.95544  0.55574  0.79247  1
 Br  Br7  1  0.04456  0.44426  0.20753  1
 Br  Br8  1  0.55574  0.70753  0.45544  1
 Br  Br9  1  0.05574  0.79247  0.54456  1
 Br  Br10  1  0.79247  0.95544  0.55574  1
 Br  Br11  1  0.55574  0.79247  0.95544  1
 Br  Br12  1  0.79247  0.54456  0.05574  1
 Br  Br13  1  0.00000  0.50000  0.50000  1
 Br  Br14  1  0.05574  0.70753  0.04456  1
 Br  Br15  1  0.50000  0.00000  0.50000  1
 Br  Br16  1  0.94426  0.20753  0.45544  1
 Br  Br17  1  0.95544  0.94426  0.29247  1
 Br  Br18  1  0.29247  0.95544  0.94426  1
 Br  Br19  1  0.70753  0.04456  0.05574  1
 Br  Br20  1  0.45544  0.94426  0.20753  1
 Br  Br21  1  0.00000  0.00000  0.00000  1
 Br  Br22  1  0.54456  0.44426  0.29247  1
 Br  Br23  1  0.44426  0.20753  0.04456  1
 Br  Br24  1  0.54456  0.05574  0.79247  1
 Br  Br25  1  0.45544  0.55574  0.70753  1
 Br  Br26  1  0.70753  0.45544  0.55574  1
 Br  Br27  1  0.04456  0.05574  0.70753  1
 Br  Br28  1  0.44426  0.29247  0.54456  1
 Hg  Hg1  1  0.18263  0.29989  0.44527  1
 Hg  Hg2  1  0.55473  0.81737  0.70011  1
 Hg  Hg3  1  0.94527  0.18263  0.20011  1
 Hg  Hg4  1  0.05473  0.68263  0.29989  1
 Hg  Hg5  1  0.44527  0.18263  0.29989  1
 Hg  Hg6  1  0.79989  0.05473  0.81737  1
 Hg  Hg7  1  0.20011  0.55473  0.68263  1
 Hg  Hg8  1  0.31737  0.70011  0.94527  1
 Hg  Hg9  1  0.94527  0.31737  0.70011  1
 Hg  Hg10  1  0.68263  0.20011  0.55473  1
 Hg  Hg11  1  0.70011  0.55473  0.81737  1
 Hg  Hg12  1  0.29989  0.44527  0.18263  1
 Hg  Hg13  1  0.81737  0.79989  0.05473  1
 Hg  Hg14  1  0.79989  0.44527  0.31737  1
 Hg  Hg15  1  0.18263  0.20011  0.94527  1
 Hg  Hg16  1  0.29989  0.05473  0.68263  1
 Hg  Hg17  1  0.05473  0.81737  0.79989  1
 Hg  Hg18  1  0.44527  0.31737  0.79989  1
 Hg  Hg19  1  0.55473  0.68263  0.20011  1
 Hg  Hg20  1  0.31737  0.79989  0.44527  1
 Hg  Hg21  1  0.70011  0.94527  0.31737  1
 Hg  Hg22  1  0.20011  0.94527  0.18263  1
 Hg  Hg23  1  0.68263  0.29989  0.05473  1
 Hg  Hg24  1  0.81737  0.70011  0.55473  1
 Sb  Sb1  1  0.75984  0.24016  0.74016  1
 Sb  Sb2  1  0.74016  0.75984  0.24016  1
 Sb  Sb3  1  0.25984  0.25984  0.25984  1
 Sb  Sb4  1  0.75984  0.25984  0.24016  1
 Sb  Sb5  1  0.25984  0.24016  0.75984  1
 Sb  Sb6  1  0.86603  0.63397  0.36603  1
 Sb  Sb7  1  0.24016  0.75984  0.25984  1
 Sb  Sb8  1  0.74016  0.74016  0.74016  1
 Sb  Sb9  1  0.13397  0.36603  0.63397  1
 Sb  Sb10  1  0.63397  0.36603  0.86603  1
 Sb  Sb11  1  0.36603  0.86603  0.63397  1
 Sb  Sb12  1  0.63397  0.13397  0.36603  1
 Sb  Sb13  1  0.13397  0.13397  0.13397  1
 Sb  Sb14  1  0.24016  0.74016  0.75984  1
 Sb  Sb15  1  0.86603  0.86603  0.86603  1
 Sb  Sb16  1  0.36603  0.63397  0.13397  1
