CIF file written using JARVIS-Tools package.
data_Ba3MgSb2O9
_symmetry_space_group_name_H-M  'P6_3/mmc'
_cell_length_a       5.89943
_cell_length_b       5.89942
_cell_length_c       14.5784
_cell_angle_alpha    90
_cell_angle_beta     90
_cell_angle_gamma    120

_symmetry_Int_Tables_number  194
_chemical_formula_structural  Ba3MgSb2O9
_chemical_formula_sum  Ba6Mg2Sb4O8
_cell_volume  439.40005829606054
_cell_formula_units_Z  2
loop_
  _symmetry_equiv_pos_site_id
 _symmetry_equiv_pos_as_xyz
 1  'x, y, z'
loop_
 _atom_site_type_symbol
 _atom_site_label
 _atom_site_symmetry_multiplicity
 _atom_site_fract_x
 _atom_site_fract_y
 _atom_site_fract_z
 _atom_site_fract_occupancy
 Ba  Ba1  1  0.00000  0.00000  0.25000  1
 Ba  Ba2  1  0.33333  0.66667  0.91087  1
 Ba  Ba3  1  0.66667  0.33333  0.41087  1
 Ba  Ba4  1  0.66667  0.33333  0.08913  1
 Ba  Ba5  1  0.33333  0.66667  0.58913  1
 Ba  Ba6  1  0.00000  0.00000  0.75000  1
 Mg  Mg1  1  0.00000  0.00000  0.50000  1
 Mg  Mg2  1  0.00000  0.00000  0.00000  1
 O  O1  1  0.66384  0.83192  0.41672  1
 O  O2  1  0.16808  0.83192  0.41672  1
 O  O3  1  0.83192  0.66384  0.58328  1
 O  O4  1  0.83192  0.16808  0.58328  1
 O  O5  1  0.16808  0.33616  0.08328  1
 O  O6  1  0.33616  0.16808  0.58328  1
 O  O7  1  0.66384  0.83192  0.08328  1
 O  O8  1  0.33616  0.16808  0.91672  1
 O  O9  1  0.83192  0.66384  0.91672  1
 O  O10  1  0.83192  0.16808  0.91672  1
 O  O11  1  0.03403  0.51701  0.25000  1
 O  O12  1  0.48299  0.96597  0.25000  1
 O  O13  1  0.16808  0.83192  0.08328  1
 O  O14  1  0.51701  0.48299  0.75000  1
 O  O15  1  0.48299  0.51701  0.25000  1
 O  O16  1  0.51701  0.03403  0.75000  1
 O  O17  1  0.16808  0.33616  0.41672  1
 O  O18  1  0.96597  0.48299  0.75000  1
 Sb  Sb1  1  0.66667  0.33333  0.65084  1
 Sb  Sb2  1  0.33333  0.66667  0.15084  1
 Sb  Sb3  1  0.66667  0.33333  0.84916  1
 Sb  Sb4  1  0.33333  0.66667  0.34916  1
