CIF file written using JARVIS-Tools package.
data_Ta2CrO6
_symmetry_space_group_name_H-M  'P4_2/mnm'
_cell_length_a       4.74184
_cell_length_b       4.74184
_cell_length_c       9.18237
_cell_angle_alpha    90
_cell_angle_beta     90
_cell_angle_gamma    90

_symmetry_Int_Tables_number  136
_chemical_formula_structural  Ta2CrO6
_chemical_formula_sum  Ta4Cr2O2
_cell_volume  206.4659061715753
_cell_formula_units_Z  2
loop_
  _symmetry_equiv_pos_site_id
 _symmetry_equiv_pos_as_xyz
 1  'x, y, z'
loop_
 _atom_site_type_symbol
 _atom_site_label
 _atom_site_symmetry_multiplicity
 _atom_site_fract_x
 _atom_site_fract_y
 _atom_site_fract_z
 _atom_site_fract_occupancy
 Cr  Cr1  1  0.50000  0.50000  0.50000  1
 Cr  Cr2  1  0.00000  0.00000  0.00000  1
 O  O1  1  0.69918  0.69918  0.66904  1
 O  O2  1  0.30082  0.30082  0.33096  1
 O  O3  1  0.19918  0.80082  0.83096  1
 O  O4  1  0.80164  0.19836  0.50000  1
 O  O5  1  0.80082  0.19918  0.16904  1
 O  O6  1  0.80082  0.19918  0.83096  1
 O  O7  1  0.69918  0.69918  0.33096  1
 O  O8  1  0.69836  0.69836  0.00000  1
 O  O9  1  0.19918  0.80082  0.16904  1
 O  O10  1  0.30164  0.30164  0.00000  1
 O  O11  1  0.19836  0.80164  0.50000  1
 O  O12  1  0.30082  0.30082  0.66904  1
 Ta  Ta1  1  0.00000  0.00000  0.33482  1
 Ta  Ta2  1  0.50000  0.50000  0.83482  1
 Ta  Ta3  1  0.00000  0.00000  0.66518  1
 Ta  Ta4  1  0.50000  0.50000  0.16518  1
