CIF file written using JARVIS-Tools package.
data_Be12Mo
_symmetry_space_group_name_H-M  'I4/mmm'
_cell_length_a       4.20696
_cell_length_b       5.52218
_cell_length_c       5.52218
_cell_angle_alpha    81.6573
_cell_angle_beta     67.6101
_cell_angle_gamma    67.61

_symmetry_Int_Tables_number  139
_chemical_formula_structural  Be12Mo
_chemical_formula_sum  Be2Mo
_cell_volume  109.67554909219076
_cell_formula_units_Z  1
loop_
  _symmetry_equiv_pos_site_id
 _symmetry_equiv_pos_as_xyz
 1  'x, y, z'
loop_
 _atom_site_type_symbol
 _atom_site_label
 _atom_site_symmetry_multiplicity
 _atom_site_fract_x
 _atom_site_fract_y
 _atom_site_fract_z
 _atom_site_fract_occupancy
 Be  Be1  1  0.50000  -0.00000  0.50000  1
 Be  Be2  1  -0.00000  0.50000  0.00000  1
 Be  Be3  1  0.50000  0.50000  0.00000  1
 Be  Be4  1  -0.00000  0.00000  0.50000  1
 Be  Be5  1  0.35033  0.64966  0.64966  1
 Be  Be6  1  0.00000  0.35034  0.64966  1
 Be  Be7  1  -0.00000  0.64966  0.35034  1
 Be  Be8  1  0.64967  0.35034  0.35034  1
 Be  Be9  1  0.28837  0.21162  0.21162  1
 Be  Be10  1  0.50000  0.78839  0.21161  1
 Be  Be11  1  0.50000  0.21161  0.78839  1
 Be  Be12  1  0.71163  0.78838  0.78838  1
 Mo  Mo1  1  0.00000  0.00000  0.00000  1
