CIF file written using JARVIS-Tools package.
data_HoAgSe2
_symmetry_space_group_name_H-M  'I4_1md'
_cell_length_a       5.6454
_cell_length_b       5.6454
_cell_length_c       7.32342
_cell_angle_alpha    112.671
_cell_angle_beta     112.671
_cell_angle_gamma    90

_symmetry_Int_Tables_number  109
_chemical_formula_structural  HoAgSe2
_chemical_formula_sum  Ho2Ag2Se4
_cell_volume  195.6788985455259
_cell_formula_units_Z  2
loop_
  _symmetry_equiv_pos_site_id
 _symmetry_equiv_pos_as_xyz
 1  'x, y, z'
loop_
 _atom_site_type_symbol
 _atom_site_label
 _atom_site_symmetry_multiplicity
 _atom_site_fract_x
 _atom_site_fract_y
 _atom_site_fract_z
 _atom_site_fract_occupancy
 Ag  Ag1  1  0.78653  0.28653  0.57306  1
 Ag  Ag2  1  0.53653  0.53653  0.07306  1
 Ho  Ho1  1  0.25220  0.75220  0.50441  1
 Ho  Ho2  1  0.00220  0.00220  0.00441  1
 Se  Se1  1  0.48317  0.98317  0.96634  1
 Se  Se2  1  0.23317  0.23317  0.46634  1
 Se  Se3  1  0.01810  0.51810  0.03619  1
 Se  Se4  1  0.76810  0.76810  0.53619  1
