CIF file written using JARVIS-Tools package.
data_CuO
_symmetry_space_group_name_H-M  'P4_2/mmc'
_cell_length_a       2.9301
_cell_length_b       2.9301
_cell_length_c       5.1744
_cell_angle_alpha    89.9312
_cell_angle_beta     89.9312
_cell_angle_gamma    89.854

_symmetry_Int_Tables_number  131
_chemical_formula_structural  CuO
_chemical_formula_sum  Cu2O2
_cell_volume  44.42445233932006
_cell_formula_units_Z  2
loop_
  _symmetry_equiv_pos_site_id
 _symmetry_equiv_pos_as_xyz
 1  'x, y, z'
loop_
 _atom_site_type_symbol
 _atom_site_label
 _atom_site_symmetry_multiplicity
 _atom_site_fract_x
 _atom_site_fract_y
 _atom_site_fract_z
 _atom_site_fract_occupancy
 Cu  Cu1  1  0.98650  0.48650  0.50800  1
 Cu  Cu2  1  0.48650  0.98650  0.00800  1
 O  O1  1  0.48697  0.48603  0.25800  1
 O  O2  1  0.48603  0.48697  0.75800  1
