CIF file written using JARVIS-Tools package.
data_Se
_symmetry_space_group_name_H-M  'Fd-3m'
_cell_length_a       4.47719
_cell_length_b       4.47719
_cell_length_c       4.47719
_cell_angle_alpha    59.9999
_cell_angle_beta     59.9999
_cell_angle_gamma    60

_symmetry_Int_Tables_number  227
_chemical_formula_structural  Se
_chemical_formula_sum  Se2
_cell_volume  63.46035230100544
_cell_formula_units_Z  2
loop_
  _symmetry_equiv_pos_site_id
 _symmetry_equiv_pos_as_xyz
 1  'x, y, z'
loop_
 _atom_site_type_symbol
 _atom_site_label
 _atom_site_symmetry_multiplicity
 _atom_site_fract_x
 _atom_site_fract_y
 _atom_site_fract_z
 _atom_site_fract_occupancy
 Se  Se1  1  0.87500  0.87500  0.87500  1
 Se  Se2  1  0.12500  0.12500  0.12500  1
