CIF file written using JARVIS-Tools package.
data_Ca3MnN3
_symmetry_space_group_name_H-M  'Cmcm'
_cell_length_a       5.00076
_cell_length_b       6.55683
_cell_length_c       6.55683
_cell_angle_alpha    101.248
_cell_angle_beta     90
_cell_angle_gamma    90

_symmetry_Int_Tables_number  63
_chemical_formula_structural  Ca3MnN3
_chemical_formula_sum  Ca6Mn2N6
_cell_volume  210.86350439959062
_cell_formula_units_Z  2
loop_
  _symmetry_equiv_pos_site_id
 _symmetry_equiv_pos_as_xyz
 1  'x, y, z'
loop_
 _atom_site_type_symbol
 _atom_site_label
 _atom_site_symmetry_multiplicity
 _atom_site_fract_x
 _atom_site_fract_y
 _atom_site_fract_z
 _atom_site_fract_occupancy
 Ca  Ca1  1  0.25000  0.90590  0.67002  1
 Ca  Ca2  1  0.75000  0.60803  0.39197  1
 Ca  Ca3  1  0.75000  0.67002  0.90590  1
 Ca  Ca4  1  0.25000  0.39197  0.60803  1
 Ca  Ca5  1  0.75000  0.09410  0.32998  1
 Ca  Ca6  1  0.25000  0.32998  0.09410  1
 Mn  Mn1  1  0.75000  0.19710  0.80290  1
 Mn  Mn2  1  0.25000  0.80290  0.19710  1
 N  N1  1  0.75000  0.93444  0.68135  1
 N  N2  1  0.25000  0.62605  0.37395  1
 N  N3  1  0.75000  0.37395  0.62605  1
 N  N4  1  0.25000  0.68135  0.93444  1
 N  N5  1  0.25000  0.06556  0.31865  1
 N  N6  1  0.75000  0.31865  0.06556  1
