CIF file written using JARVIS-Tools package.
data_SmCuP2
_symmetry_space_group_name_H-M  'I4/mmm'
_cell_length_a       3.797
_cell_length_b       3.79701
_cell_length_c       10.2794
_cell_angle_alpha    100.643
_cell_angle_beta     100.643
_cell_angle_gamma    90

_symmetry_Int_Tables_number  139
_chemical_formula_structural  SmCuP2
_chemical_formula_sum  Sm2Cu2P4
_cell_volume  143.05605302425016
_cell_formula_units_Z  2
loop_
  _symmetry_equiv_pos_site_id
 _symmetry_equiv_pos_as_xyz
 1  'x, y, z'
loop_
 _atom_site_type_symbol
 _atom_site_label
 _atom_site_symmetry_multiplicity
 _atom_site_fract_x
 _atom_site_fract_y
 _atom_site_fract_z
 _atom_site_fract_occupancy
 Cu  Cu1  1  0.75000  0.25000  0.50000  1
 Cu  Cu2  1  0.25000  0.75000  0.50000  1
 P  P1  1  0.67463  0.67463  0.34926  1
 P  P2  1  0.32537  0.32537  0.65074  1
 P  P3  1  0.50000  -0.00000  -0.00000  1
 P  P4  1  -0.00000  0.50000  -0.00000  1
 Sm  Sm1  1  0.88391  0.88391  0.76782  1
 Sm  Sm2  1  0.11609  0.11609  0.23218  1
