CIF file written using JARVIS-Tools package.
data_SiO2
_symmetry_space_group_name_H-M  'P6_3/mmc'
_cell_length_a       10.0461
_cell_length_b       10.0461
_cell_length_c       10.3108
_cell_angle_alpha    90
_cell_angle_beta     90
_cell_angle_gamma    120

_symmetry_Int_Tables_number  194
_chemical_formula_structural  SiO2
_chemical_formula_sum  Si2O24
_cell_volume  901.1828443072395
_cell_formula_units_Z  12
loop_
  _symmetry_equiv_pos_site_id
 _symmetry_equiv_pos_as_xyz
 1  'x, y, z'
loop_
 _atom_site_type_symbol
 _atom_site_label
 _atom_site_symmetry_multiplicity
 _atom_site_fract_x
 _atom_site_fract_y
 _atom_site_fract_z
 _atom_site_fract_occupancy
 O  O1  1  0.75432  0.24568  0.91407  1
 O  O2  1  0.93803  0.46901  0.75000  1
 O  O3  1  -0.00000  0.50000  0.00000  1
 O  O4  1  0.50865  0.75432  0.41407  1
 O  O5  1  0.50000  0.50000  0.50000  1
 O  O6  1  0.49135  0.24568  0.58593  1
 O  O7  1  0.24568  0.75432  0.08593  1
 O  O8  1  0.50000  0.00000  0.00000  1
 O  O9  1  0.24568  0.49135  0.41407  1
 O  O10  1  0.50000  0.50000  0.00000  1
 O  O11  1  0.75432  0.24568  0.58593  1
 O  O12  1  0.50865  0.75432  0.08593  1
 O  O13  1  0.75432  0.50865  0.91407  1
 O  O14  1  0.53099  0.46901  0.75000  1
 O  O15  1  0.24568  0.49135  0.08593  1
 O  O16  1  0.53099  0.06197  0.75000  1
 O  O17  1  0.49135  0.24568  0.91407  1
 O  O18  1  -0.00000  0.50000  0.50000  1
 O  O19  1  0.46901  0.53099  0.25000  1
 O  O20  1  0.24568  0.75432  0.41407  1
 O  O21  1  0.75432  0.50865  0.58593  1
 O  O22  1  0.50000  0.00000  0.50000  1
 O  O23  1  0.06197  0.53099  0.25000  1
 O  O24  1  0.46901  0.93803  0.25000  1
 Si  Si1  1  0.56805  0.43195  0.89547  1
 Si  Si2  1  0.56805  0.13610  0.89547  1
 Si  Si3  1  0.43195  0.86390  0.10453  1
 Si  Si4  1  0.43195  0.86390  0.39547  1
 Si  Si5  1  0.86390  0.43195  0.89547  1
 Si  Si6  1  0.86390  0.43195  0.60453  1
 Si  Si7  1  0.43195  0.56805  0.39547  1
 Si  Si8  1  0.56805  0.43195  0.60453  1
 Si  Si9  1  0.43195  0.56805  0.10453  1
 Si  Si10  1  0.13610  0.56805  0.39547  1
 Si  Si11  1  0.13610  0.56805  0.10453  1
 Si  Si12  1  0.56805  0.13610  0.60453  1
