CIF file written using JARVIS-Tools package.
data_La3Ga5SnO14
_symmetry_space_group_name_H-M  'P321'
_cell_length_a       8.31506
_cell_length_b       8.31506
_cell_length_c       5.21327
_cell_angle_alpha    90
_cell_angle_beta     90
_cell_angle_gamma    120

_symmetry_Int_Tables_number  150
_chemical_formula_structural  La3Ga5SnO14
_chemical_formula_sum  La3Ga5SnO4
_cell_volume  312.15632407631455
_cell_formula_units_Z  1
loop_
  _symmetry_equiv_pos_site_id
 _symmetry_equiv_pos_as_xyz
 1  'x, y, z'
loop_
 _atom_site_type_symbol
 _atom_site_label
 _atom_site_symmetry_multiplicity
 _atom_site_fract_x
 _atom_site_fract_y
 _atom_site_fract_z
 _atom_site_fract_occupancy
 Ga  Ga1  1  0.75625  0.00000  0.50000  1
 Ga  Ga2  1  -0.00000  0.75625  0.50000  1
 Ga  Ga3  1  0.24375  0.24375  0.50000  1
 Ga  Ga4  1  0.33333  0.66667  0.47021  1
 Ga  Ga5  1  0.66667  0.33333  0.52979  1
 La  La1  1  0.42842  0.00000  0.00000  1
 La  La2  1  0.57158  0.57158  0.00000  1
 La  La3  1  -0.00000  0.42842  0.00000  1
 O  O1  1  0.77215  0.85310  0.75776  1
 O  O2  1  0.14690  0.91905  0.75776  1
 O  O3  1  0.85310  0.77215  0.24224  1
 O  O4  1  0.91905  0.14690  0.24224  1
 O  O5  1  0.22785  0.08095  0.24224  1
 O  O6  1  0.31248  0.45836  0.30106  1
 O  O7  1  0.08095  0.22785  0.75776  1
 O  O8  1  0.14588  0.68752  0.30106  1
 O  O9  1  0.33333  0.66667  0.82050  1
 O  O10  1  0.66667  0.33333  0.17950  1
 O  O11  1  0.68752  0.14588  0.69894  1
 O  O12  1  0.85412  0.54164  0.69894  1
 O  O13  1  0.54164  0.85412  0.30106  1
 O  O14  1  0.45836  0.31248  0.69894  1
 Sn  Sn1  1  0.00000  0.00000  0.00000  1
