CIF file written using JARVIS-Tools package.
data_K2SO4
_symmetry_space_group_name_H-M  'Pnma'
_cell_length_a       5.75075
_cell_length_b       7.44168
_cell_length_c       10.0419
_cell_angle_alpha    90
_cell_angle_beta     90
_cell_angle_gamma    90

_symmetry_Int_Tables_number  62
_chemical_formula_structural  K2SO4
_chemical_formula_sum  K8S4O6
_cell_volume  429.7432884740322
_cell_formula_units_Z  4
loop_
  _symmetry_equiv_pos_site_id
 _symmetry_equiv_pos_as_xyz
 1  'x, y, z'
loop_
 _atom_site_type_symbol
 _atom_site_label
 _atom_site_symmetry_multiplicity
 _atom_site_fract_x
 _atom_site_fract_y
 _atom_site_fract_z
 _atom_site_fract_occupancy
 K  K1  1  0.75000  0.51096  0.79779  1
 K  K2  1  0.25000  0.48904  0.20221  1
 K  K3  1  0.75000  0.01096  0.70221  1
 K  K4  1  0.25000  0.98904  0.29779  1
 K  K5  1  0.25000  0.17039  0.91093  1
 K  K6  1  0.75000  0.82961  0.08907  1
 K  K7  1  0.25000  0.67039  0.58907  1
 K  K8  1  0.75000  0.32961  0.41093  1
 O  O1  1  0.46137  0.80179  0.85086  1
 O  O2  1  0.53863  0.19821  0.14914  1
 O  O3  1  0.03863  0.80179  0.85086  1
 O  O4  1  0.96137  0.19821  0.14914  1
 O  O5  1  0.53863  0.69821  0.35086  1
 O  O6  1  0.75000  0.46646  0.08243  1
 O  O7  1  0.96137  0.69821  0.35086  1
 O  O8  1  0.03863  0.30179  0.64914  1
 O  O9  1  0.25000  0.80061  0.05965  1
 O  O10  1  0.75000  0.96646  0.41757  1
 O  O11  1  0.25000  0.30061  0.44035  1
 O  O12  1  0.75000  0.69939  0.55965  1
 O  O13  1  0.46137  0.30179  0.64914  1
 O  O14  1  0.25000  0.03354  0.58243  1
 O  O15  1  0.75000  0.19939  0.94035  1
 O  O16  1  0.25000  0.53354  0.91757  1
 S  S1  1  0.25000  0.73255  0.91971  1
 S  S2  1  0.75000  0.26745  0.08029  1
 S  S3  1  0.25000  0.23255  0.58029  1
 S  S4  1  0.75000  0.76745  0.41971  1
