CIF file written using JARVIS-Tools package.
data_PAuS4
_symmetry_space_group_name_H-M  'P-1'
_cell_length_a       5.78889
_cell_length_b       6.91958
_cell_length_c       7.91366
_cell_angle_alpha    80.1776
_cell_angle_beta     92.0396
_cell_angle_gamma    81.4201

_symmetry_Int_Tables_number  2
_chemical_formula_structural  PAuS4
_chemical_formula_sum  P2Au2S8
_cell_volume  308.2463574706163
_cell_formula_units_Z  2
loop_
  _symmetry_equiv_pos_site_id
 _symmetry_equiv_pos_as_xyz
 1  'x, y, z'
loop_
 _atom_site_type_symbol
 _atom_site_label
 _atom_site_symmetry_multiplicity
 _atom_site_fract_x
 _atom_site_fract_y
 _atom_site_fract_z
 _atom_site_fract_occupancy
 Au  Au1  1  0.50000  0.50000  0.50000  1
 Au  Au2  1  0.00000  0.00000  0.00000  1
 P  P1  1  0.70899  0.23509  0.24184  1
 P  P2  1  0.29101  0.76491  0.75816  1
 S  S1  1  0.31854  0.73510  0.02221  1
 S  S2  1  0.68146  0.26490  -0.02221  1
 S  S3  1  0.39707  0.24431  0.35826  1
 S  S4  1  0.60293  0.75569  0.64174  1
 S  S5  1  0.06888  0.03461  0.70300  1
 S  S6  1  0.93112  0.96539  0.29700  1
 S  S7  1  0.16972  0.53143  0.66972  1
 S  S8  1  0.83028  0.46857  0.33028  1
