CIF file written using JARVIS-Tools package.
data_LiCrP2O7
_symmetry_space_group_name_H-M  'C2'
_cell_length_a       5.17902
_cell_length_b       5.17901
_cell_length_c       4.49052
_cell_angle_alpha    81.5362
_cell_angle_beta     98.4637
_cell_angle_gamma    77.7127

_symmetry_Int_Tables_number  5
_chemical_formula_structural  LiCrP2O7
_chemical_formula_sum  LiCrP2O7
_cell_volume  114.40213356845081
_cell_formula_units_Z  1
loop_
  _symmetry_equiv_pos_site_id
 _symmetry_equiv_pos_as_xyz
 1  'x, y, z'
loop_
 _atom_site_type_symbol
 _atom_site_label
 _atom_site_symmetry_multiplicity
 _atom_site_fract_x
 _atom_site_fract_y
 _atom_site_fract_z
 _atom_site_fract_occupancy
 Cr  Cr1  1  0.12117  0.12117  -0.00000  1
 Li  Li1  1  0.74933  0.74933  0.00000  1
 O  O1  1  0.12645  0.46036  0.74313  1
 O  O2  1  0.06870  0.81598  0.28404  1
 O  O3  1  0.34736  0.85115  0.80382  1
 O  O4  1  0.53244  0.53244  0.50000  1
 O  O5  1  0.85115  0.34736  0.19618  1
 O  O6  1  0.46036  0.12645  0.25687  1
 O  O7  1  0.81598  0.06870  0.71596  1
 P  P1  1  0.25251  0.66940  0.59016  1
 P  P2  1  0.66940  0.25251  0.40984  1
