CIF file written using JARVIS-Tools package.
data_TmGa2Pd
_symmetry_space_group_name_H-M  'Cmcm'
_cell_length_a       4.3974
_cell_length_b       5.47995
_cell_length_c       6.55527
_cell_angle_alpha    90
_cell_angle_beta     90
_cell_angle_gamma    113.655

_symmetry_Int_Tables_number  63
_chemical_formula_structural  TmGa2Pd
_chemical_formula_sum  Tm2Ga4Pd2
_cell_volume  144.69337553037624
_cell_formula_units_Z  2
loop_
  _symmetry_equiv_pos_site_id
 _symmetry_equiv_pos_as_xyz
 1  'x, y, z'
loop_
 _atom_site_type_symbol
 _atom_site_label
 _atom_site_symmetry_multiplicity
 _atom_site_fract_x
 _atom_site_fract_y
 _atom_site_fract_z
 _atom_site_fract_occupancy
 Ga  Ga1  1  0.37388  0.74776  0.94827  1
 Ga  Ga2  1  0.62612  0.25224  0.05173  1
 Ga  Ga3  1  0.62612  0.25224  0.44827  1
 Ga  Ga4  1  0.37388  0.74776  0.55173  1
 Pd  Pd1  1  0.80058  0.60116  0.75000  1
 Pd  Pd2  1  0.19942  0.39884  0.25000  1
 Tm  Tm1  1  0.08937  0.17875  0.75000  1
 Tm  Tm2  1  0.91063  0.82125  0.25000  1
