CIF file written using JARVIS-Tools package.
data_Zr2Al3
_symmetry_space_group_name_H-M  'Fdd2'
_cell_length_a       5.58044
_cell_length_b       5.58044
_cell_length_c       7.53787
_cell_angle_alpha    100.746
_cell_angle_beta     100.746
_cell_angle_gamma    119.755

_symmetry_Int_Tables_number  43
_chemical_formula_structural  Zr2Al3
_chemical_formula_sum  Zr4Al6
_cell_volume  189.20336217804578
_cell_formula_units_Z  2
loop_
  _symmetry_equiv_pos_site_id
 _symmetry_equiv_pos_as_xyz
 1  'x, y, z'
loop_
 _atom_site_type_symbol
 _atom_site_label
 _atom_site_symmetry_multiplicity
 _atom_site_fract_x
 _atom_site_fract_y
 _atom_site_fract_z
 _atom_site_fract_occupancy
 Al  Al1  1  0.12923  0.12923  0.00000  1
 Al  Al2  1  0.37923  0.87923  0.50000  1
 Al  Al3  1  0.45648  0.32002  0.76992  1
 Al  Al4  1  0.55010  0.68656  0.23008  1
 Al  Al5  1  0.57002  0.20648  0.26992  1
 Al  Al6  1  0.93656  0.30010  0.73008  1
 Zr  Zr1  1  0.86477  0.73000  0.60559  1
 Zr  Zr2  1  0.12442  0.25918  0.39441  1
 Zr  Zr3  1  0.98000  0.61477  0.10559  1
 Zr  Zr4  1  0.50918  0.87442  0.89441  1
