CIF file written using JARVIS-Tools package.
data_AlI3
_symmetry_space_group_name_H-M  'P2_1/c'
_cell_length_a       9.61053
_cell_length_b       6.03653
_cell_length_c       11.9129
_cell_angle_alpha    90
_cell_angle_beta     107.897
_cell_angle_gamma    90

_symmetry_Int_Tables_number  14
_chemical_formula_structural  AlI3
_chemical_formula_sum  Al4I2
_cell_volume  657.6760047295677
_cell_formula_units_Z  4
loop_
  _symmetry_equiv_pos_site_id
 _symmetry_equiv_pos_as_xyz
 1  'x, y, z'
loop_
 _atom_site_type_symbol
 _atom_site_label
 _atom_site_symmetry_multiplicity
 _atom_site_fract_x
 _atom_site_fract_y
 _atom_site_fract_z
 _atom_site_fract_occupancy
 Al  Al1  1  0.19666  0.00148  0.04878  1
 Al  Al2  1  0.80334  0.50148  0.45122  1
 Al  Al3  1  0.80334  0.99852  0.95122  1
 Al  Al4  1  0.19666  0.49852  0.54878  1
 I  I1  1  0.33199  0.74895  0.21182  1
 I  I2  1  0.66801  0.24895  0.28818  1
 I  I3  1  0.66801  0.25105  0.78818  1
 I  I4  1  0.33199  0.75105  0.71182  1
 I  I5  1  0.33021  0.25536  0.95196  1
 I  I6  1  0.66979  0.75536  0.54804  1
 I  I7  1  0.66979  0.74464  0.04804  1
 I  I8  1  0.33021  0.24464  0.45196  1
 I  I9  1  0.00069  0.76865  0.88110  1
 I  I10  1  0.99931  0.26865  0.61890  1
 I  I11  1  0.99931  0.23135  0.11890  1
 I  I12  1  0.00069  0.73135  0.38110  1
