CIF file written using JARVIS-Tools package.
data_MoH6NO3F2
_symmetry_space_group_name_H-M  'C2/c'
_cell_length_a       8.26179
_cell_length_b       8.26179
_cell_length_c       7.89179
_cell_angle_alpha    77.3276
_cell_angle_beta     102.672
_cell_angle_gamma    68.462

_symmetry_Int_Tables_number  15
_chemical_formula_structural  MoH6NO3F2
_chemical_formula_sum  Mo4H24N4O2F8
_cell_volume  461.38557746351336
_cell_formula_units_Z  4
loop_
  _symmetry_equiv_pos_site_id
 _symmetry_equiv_pos_as_xyz
 1  'x, y, z'
loop_
 _atom_site_type_symbol
 _atom_site_label
 _atom_site_symmetry_multiplicity
 _atom_site_fract_x
 _atom_site_fract_y
 _atom_site_fract_z
 _atom_site_fract_occupancy
 F  F1  1  0.49140  0.76220  0.41339  1
 F  F2  1  0.23780  0.50860  0.91339  1
 F  F3  1  0.33785  0.91069  0.03253  1
 F  F4  1  0.91069  0.33785  0.46747  1
 F  F5  1  0.66215  0.08931  0.96747  1
 F  F6  1  0.08931  0.66215  0.53253  1
 F  F7  1  0.76220  0.49140  0.08661  1
 F  F8  1  0.50860  0.23780  0.58661  1
 H  H1  1  0.47171  0.36926  0.36565  1
 H  H2  1  0.57792  0.40770  0.73335  1
 H  H3  1  0.52829  0.63074  0.63435  1
 H  H4  1  0.29316  0.11433  0.83870  1
 H  H5  1  0.59230  0.42208  0.23335  1
 H  H6  1  0.36926  0.47171  0.13435  1
 H  H7  1  0.40770  0.57792  0.76665  1
 H  H8  1  0.42208  0.59230  0.26665  1
 H  H9  1  0.63074  0.52829  0.86565  1
 H  H10  1  0.11433  0.29316  0.66130  1
 H  H11  1  0.88567  0.70684  0.33870  1
 H  H12  1  0.75175  0.66675  0.17258  1
 H  H13  1  0.66675  0.75175  0.32742  1
 H  H14  1  0.80658  0.07663  0.36870  1
 H  H15  1  0.24825  0.33325  0.82742  1
 H  H16  1  0.19342  0.92337  0.63130  1
 H  H17  1  0.07663  0.80658  0.13130  1
 H  H18  1  0.75797  0.13337  0.14525  1
 H  H19  1  0.13337  0.75797  0.35475  1
 H  H20  1  0.24203  0.86663  0.85475  1
 H  H21  1  0.86663  0.24203  0.64525  1
 H  H22  1  0.33325  0.24825  0.67258  1
 H  H23  1  0.92337  0.19342  0.86870  1
 H  H24  1  0.70684  0.88567  0.16130  1
 Mo  Mo1  1  0.71657  0.98489  0.76084  1
 Mo  Mo2  1  0.01511  0.28343  0.26084  1
 Mo  Mo3  1  0.28343  0.01511  0.23916  1
 Mo  Mo4  1  0.98489  0.71657  0.73916  1
 N  N1  1  0.75347  0.75347  0.25000  1
 N  N2  1  0.24653  0.24653  0.75000  1
 N  N3  1  0.46450  0.46450  0.25000  1
 N  N4  1  0.53550  0.53550  0.75000  1
 O  O1  1  0.18830  0.84191  0.74348  1
 O  O2  1  0.04887  0.19783  0.05390  1
 O  O3  1  0.56887  0.88825  0.76748  1
 O  O4  1  0.95113  0.80217  0.94610  1
 O  O5  1  0.43113  0.11175  0.23252  1
 O  O6  1  0.11175  0.43113  0.26748  1
 O  O7  1  0.88825  0.56887  0.73252  1
 O  O8  1  0.80217  0.95113  0.55390  1
 O  O9  1  0.19783  0.04887  0.44610  1
 O  O10  1  0.15809  0.81170  0.24348  1
 O  O11  1  0.84191  0.18830  0.75652  1
 O  O12  1  0.81170  0.15809  0.25652  1
