CIF file written using JARVIS-Tools package.
data_HoNi3
_symmetry_space_group_name_H-M  'R-3m'
_cell_length_a       8.58422
_cell_length_b       8.58423
_cell_length_c       8.58422
_cell_angle_alpha    33.3797
_cell_angle_beta     33.3797
_cell_angle_gamma    33.3797

_symmetry_Int_Tables_number  166
_chemical_formula_structural  HoNi3
_chemical_formula_sum  Ho3Ni9
_cell_volume  170.50554007590964
_cell_formula_units_Z  3
loop_
  _symmetry_equiv_pos_site_id
 _symmetry_equiv_pos_as_xyz
 1  'x, y, z'
loop_
 _atom_site_type_symbol
 _atom_site_label
 _atom_site_symmetry_multiplicity
 _atom_site_fract_x
 _atom_site_fract_y
 _atom_site_fract_z
 _atom_site_fract_occupancy
 Ho  Ho1  1  0.86128  0.86128  0.86128  1
 Ho  Ho2  1  0.13872  0.13872  0.13872  1
 Ho  Ho3  1  0.00000  0.00000  0.00000  1
 Ni  Ni1  1  0.41692  0.41692  0.91909  1
 Ni  Ni2  1  0.41692  0.91909  0.41692  1
 Ni  Ni3  1  0.91909  0.41692  0.41692  1
 Ni  Ni4  1  0.50000  0.50000  0.50000  1
 Ni  Ni5  1  0.33314  0.33314  0.33314  1
 Ni  Ni6  1  0.66686  0.66686  0.66686  1
 Ni  Ni7  1  0.58308  0.08091  0.58308  1
 Ni  Ni8  1  0.58308  0.58308  0.08091  1
 Ni  Ni9  1  0.08091  0.58308  0.58308  1
