CIF file written using JARVIS-Tools package.
data_KAuI4O12
_symmetry_space_group_name_H-M  'P1'
_cell_length_a       5.63012
_cell_length_b       7.21108
_cell_length_c       8.10149
_cell_angle_alpha    105.394
_cell_angle_beta     92.9503
_cell_angle_gamma    112.339

_symmetry_Int_Tables_number  1
_chemical_formula_structural  KAuI4O12
_chemical_formula_sum  KAuI4O2
_cell_volume  289.0017335074226
_cell_formula_units_Z  1
loop_
  _symmetry_equiv_pos_site_id
 _symmetry_equiv_pos_as_xyz
 1  'x, y, z'
loop_
 _atom_site_type_symbol
 _atom_site_label
 _atom_site_symmetry_multiplicity
 _atom_site_fract_x
 _atom_site_fract_y
 _atom_site_fract_z
 _atom_site_fract_occupancy
 Au  Au1  1  0.39776  0.09662  0.37481  1
 I  I1  1  0.50489  0.78009  0.58047  1
 I  I2  1  0.88606  0.41097  0.23432  1
 I  I3  1  0.82066  0.44447  0.74244  1
 I  I4  1  0.51682  0.74754  0.06321  1
 K  K1  1  0.20193  0.10096  0.88500  1
 O  O1  1  0.34903  0.76993  0.77263  1
 O  O2  1  0.47202  0.29955  0.61371  1
 O  O3  1  0.53183  0.33788  0.27474  1
 O  O4  1  0.82539  0.70026  0.74736  1
 O  O5  1  0.25089  0.85589  0.47319  1
 O  O6  1  0.65581  0.76378  0.27770  1
 O  O7  1  0.22592  0.49946  0.00468  1
 O  O8  1  0.76418  0.04446  0.66224  1
 O  O9  1  0.69038  0.43895  0.94521  1
 O  O10  1  0.29940  0.89837  0.13315  1
 O  O11  1  0.85778  0.15163  0.11088  1
 O  O12  1  0.02725  0.41994  0.44789  1
