CIF file written using JARVIS-Tools package.
data_Li4Al3Ge3IO12
_symmetry_space_group_name_H-M  'P-43n'
_cell_length_a       8.77495
_cell_length_b       8.77495
_cell_length_c       8.77495
_cell_angle_alpha    90
_cell_angle_beta     90
_cell_angle_gamma    90

_symmetry_Int_Tables_number  218
_chemical_formula_structural  Li4Al3Ge3IO12
_chemical_formula_sum  Li8Al6Ge6I2O24
_cell_volume  675.6691720087671
_cell_formula_units_Z  2
loop_
  _symmetry_equiv_pos_site_id
 _symmetry_equiv_pos_as_xyz
 1  'x, y, z'
loop_
 _atom_site_type_symbol
 _atom_site_label
 _atom_site_symmetry_multiplicity
 _atom_site_fract_x
 _atom_site_fract_y
 _atom_site_fract_z
 _atom_site_fract_occupancy
 Al  Al1  1  0.75000  0.50000  0.00000  1
 Al  Al2  1  0.00000  0.25000  0.50000  1
 Al  Al3  1  0.50000  0.00000  0.25000  1
 Al  Al4  1  0.00000  0.75000  0.50000  1
 Al  Al5  1  0.25000  0.50000  0.00000  1
 Al  Al6  1  0.50000  0.00000  0.75000  1
 Ge  Ge1  1  0.00000  0.50000  0.75000  1
 Ge  Ge2  1  0.00000  0.50000  0.25000  1
 Ge  Ge3  1  0.50000  0.75000  0.00000  1
 Ge  Ge4  1  0.50000  0.25000  0.00000  1
 Ge  Ge5  1  0.25000  0.00000  0.50000  1
 Ge  Ge6  1  0.75000  0.00000  0.50000  1
 I  I1  1  0.50000  0.50000  0.50000  1
 I  I2  1  0.00000  0.00000  0.00000  1
 Li  Li1  1  0.68786  0.31214  0.31214  1
 Li  Li2  1  0.31214  0.68786  0.31214  1
 Li  Li3  1  0.18786  0.18786  0.18786  1
 Li  Li4  1  0.18786  0.81214  0.81214  1
 Li  Li5  1  0.68786  0.68786  0.68786  1
 Li  Li6  1  0.31214  0.31214  0.68786  1
 Li  Li7  1  0.81214  0.18786  0.81214  1
 Li  Li8  1  0.81214  0.81214  0.18786  1
 O  O1  1  0.36063  0.90442  0.36044  1
 O  O2  1  0.09558  0.63956  0.36063  1
 O  O3  1  0.86044  0.40442  0.86063  1
 O  O4  1  0.09558  0.36044  0.63937  1
 O  O5  1  0.63937  0.09558  0.36044  1
 O  O6  1  0.13937  0.86044  0.59558  1
 O  O7  1  0.40442  0.86063  0.86044  1
 O  O8  1  0.63956  0.63937  0.90442  1
 O  O9  1  0.13956  0.40442  0.13937  1
 O  O10  1  0.86063  0.86044  0.40442  1
 O  O11  1  0.59558  0.86063  0.13956  1
 O  O12  1  0.63956  0.36063  0.09558  1
 O  O13  1  0.86063  0.13956  0.59558  1
 O  O14  1  0.90442  0.36044  0.36063  1
 O  O15  1  0.90442  0.63956  0.63937  1
 O  O16  1  0.40442  0.13937  0.13956  1
 O  O17  1  0.36044  0.63937  0.09558  1
 O  O18  1  0.63937  0.90442  0.63956  1
 O  O19  1  0.36063  0.09558  0.63956  1
 O  O20  1  0.59558  0.13937  0.86044  1
 O  O21  1  0.86044  0.59558  0.13937  1
 O  O22  1  0.13956  0.59558  0.86063  1
 O  O23  1  0.13937  0.13956  0.40442  1
 O  O24  1  0.36044  0.36063  0.90442  1
