CIF file written using JARVIS-Tools package.
data_LiVF4
_symmetry_space_group_name_H-M  'P2_1/c'
_cell_length_a       7.177
_cell_length_b       5.05595
_cell_length_c       7.98351
_cell_angle_alpha    90
_cell_angle_beta     104.734
_cell_angle_gamma    90

_symmetry_Int_Tables_number  14
_chemical_formula_structural  LiVF4
_chemical_formula_sum  Li4V4F6
_cell_volume  280.168423532229
_cell_formula_units_Z  4
loop_
  _symmetry_equiv_pos_site_id
 _symmetry_equiv_pos_as_xyz
 1  'x, y, z'
loop_
 _atom_site_type_symbol
 _atom_site_label
 _atom_site_symmetry_multiplicity
 _atom_site_fract_x
 _atom_site_fract_y
 _atom_site_fract_z
 _atom_site_fract_occupancy
 F  F1  1  0.16889  0.04156  0.44802  1
 F  F2  1  0.88248  0.12535  0.88961  1
 F  F3  1  0.38248  0.37465  0.88961  1
 F  F4  1  0.73890  0.59769  0.79443  1
 F  F5  1  0.61752  0.62535  0.11039  1
 F  F6  1  0.52765  0.09537  0.67347  1
 F  F7  1  0.83111  0.95844  0.55198  1
 F  F8  1  0.23890  0.90231  0.79443  1
 F  F9  1  0.33111  0.54156  0.55198  1
 F  F10  1  0.66889  0.45844  0.44802  1
 F  F11  1  0.97235  0.59537  0.32653  1
 F  F12  1  0.11752  0.87465  0.11039  1
 F  F13  1  0.47235  0.90463  0.32653  1
 F  F14  1  0.76110  0.09769  0.20557  1
 F  F15  1  0.26110  0.40231  0.20557  1
 F  F16  1  0.02765  0.40463  0.67347  1
 Li  Li1  1  -0.00961  0.20263  0.13481  1
 Li  Li2  1  0.49039  0.29737  0.13481  1
 Li  Li3  1  0.50961  0.70263  0.86519  1
 Li  Li4  1  0.00961  0.79737  0.86519  1
 V  V1  1  0.23087  0.72141  0.32957  1
 V  V2  1  0.73087  0.77859  0.32957  1
 V  V3  1  0.26913  0.22141  0.67043  1
 V  V4  1  0.76913  0.27859  0.67043  1
