CIF file written using JARVIS-Tools package.
data_Na2VO3
_symmetry_space_group_name_H-M  'C2/m'
_cell_length_a       5.30551
_cell_length_b       5.30551
_cell_length_c       5.63919
_cell_angle_alpha    80.6897
_cell_angle_beta     99.3103
_cell_angle_gamma    60.0039

_symmetry_Int_Tables_number  12
_chemical_formula_structural  Na2VO3
_chemical_formula_sum  Na4V2O6
_cell_volume  130.07929554410597
_cell_formula_units_Z  2
loop_
  _symmetry_equiv_pos_site_id
 _symmetry_equiv_pos_as_xyz
 1  'x, y, z'
loop_
 _atom_site_type_symbol
 _atom_site_label
 _atom_site_symmetry_multiplicity
 _atom_site_fract_x
 _atom_site_fract_y
 _atom_site_fract_z
 _atom_site_fract_occupancy
 Na  Na1  1  0.15768  0.15768  0.50000  1
 Na  Na2  1  0.84232  0.84232  0.50000  1
 Na  Na3  1  0.50000  0.50000  0.50000  1
 Na  Na4  1  0.00000  0.00000  0.00000  1
 O  O1  1  0.30886  0.69114  0.79757  1
 O  O2  1  0.06854  0.55271  0.20026  1
 O  O3  1  0.44729  0.93146  0.20026  1
 O  O4  1  0.93146  0.44729  0.79974  1
 O  O5  1  0.55271  0.06854  0.79974  1
 O  O6  1  0.69114  0.30886  0.20243  1
 V  V1  1  0.66760  0.66760  0.00000  1
 V  V2  1  0.33240  0.33240  0.00000  1
