CIF file written using JARVIS-Tools package.
data_SrSi2
_symmetry_space_group_name_H-M  'I4_1/amd'
_cell_length_a       4.47274
_cell_length_b       4.47274
_cell_length_c       7.64253
_cell_angle_alpha    107.015
_cell_angle_beta     107.015
_cell_angle_gamma    90

_symmetry_Int_Tables_number  141
_chemical_formula_structural  SrSi2
_chemical_formula_sum  Sr2Si4
_cell_volume  139.18556306727908
_cell_formula_units_Z  2
loop_
  _symmetry_equiv_pos_site_id
 _symmetry_equiv_pos_as_xyz
 1  'x, y, z'
loop_
 _atom_site_type_symbol
 _atom_site_label
 _atom_site_symmetry_multiplicity
 _atom_site_fract_x
 _atom_site_fract_y
 _atom_site_fract_z
 _atom_site_fract_occupancy
 Si  Si1  1  0.20926  0.45926  0.91852  1
 Si  Si2  1  0.95926  0.70926  0.41852  1
 Si  Si3  1  0.04074  0.29074  0.58148  1
 Si  Si4  1  0.79074  0.54074  0.08148  1
 Sr  Sr1  1  0.62500  0.87500  0.75000  1
 Sr  Sr2  1  0.37500  0.12500  0.25000  1
