CIF file written using JARVIS-Tools package.
data_CuSbSe2
_symmetry_space_group_name_H-M  'Pnma'
_cell_length_a       4.03497
_cell_length_b       6.44285
_cell_length_c       15.0819
_cell_angle_alpha    90
_cell_angle_beta     90
_cell_angle_gamma    90

_symmetry_Int_Tables_number  62
_chemical_formula_structural  CuSbSe2
_chemical_formula_sum  Cu4Sb4Se8
_cell_volume  392.0813077027595
_cell_formula_units_Z  4
loop_
  _symmetry_equiv_pos_site_id
 _symmetry_equiv_pos_as_xyz
 1  'x, y, z'
loop_
 _atom_site_type_symbol
 _atom_site_label
 _atom_site_symmetry_multiplicity
 _atom_site_fract_x
 _atom_site_fract_y
 _atom_site_fract_z
 _atom_site_fract_occupancy
 Cu  Cu1  1  0.75000  0.74929  0.17180  1
 Cu  Cu2  1  0.25000  0.25071  0.82820  1
 Cu  Cu3  1  0.75000  0.24929  0.32820  1
 Cu  Cu4  1  0.25000  0.75071  0.67180  1
 Sb  Sb1  1  0.75000  0.77162  0.94138  1
 Sb  Sb2  1  0.25000  0.72838  0.44138  1
 Sb  Sb3  1  0.75000  0.27162  0.55862  1
 Sb  Sb4  1  0.25000  0.22838  0.05862  1
 Se  Se1  1  0.25000  0.37566  0.67558  1
 Se  Se2  1  0.75000  0.37206  0.90326  1
 Se  Se3  1  0.75000  0.62434  0.32442  1
 Se  Se4  1  0.25000  0.87566  0.82442  1
 Se  Se5  1  0.75000  0.87206  0.59674  1
 Se  Se6  1  0.25000  0.62794  0.09674  1
 Se  Se7  1  0.25000  0.12794  0.40326  1
 Se  Se8  1  0.75000  0.12434  0.17558  1
