CIF file written using JARVIS-Tools package.
data_Nd5Ge3
_symmetry_space_group_name_H-M  'P6_3/mcm'
_cell_length_a       8.82757
_cell_length_b       8.82757
_cell_length_c       6.69493
_cell_angle_alpha    90
_cell_angle_beta     90
_cell_angle_gamma    120

_symmetry_Int_Tables_number  193
_chemical_formula_structural  Nd5Ge3
_chemical_formula_sum  Nd0Ge6
_cell_volume  451.81306999062673
_cell_formula_units_Z  2
loop_
  _symmetry_equiv_pos_site_id
 _symmetry_equiv_pos_as_xyz
 1  'x, y, z'
loop_
 _atom_site_type_symbol
 _atom_site_label
 _atom_site_symmetry_multiplicity
 _atom_site_fract_x
 _atom_site_fract_y
 _atom_site_fract_z
 _atom_site_fract_occupancy
 Ge  Ge1  1  0.00000  0.60826  0.25000  1
 Ge  Ge2  1  0.60826  0.60826  0.75000  1
 Ge  Ge3  1  0.39174  -0.00000  0.75000  1
 Ge  Ge4  1  0.60826  0.00000  0.25000  1
 Ge  Ge5  1  0.39174  0.39174  0.25000  1
 Ge  Ge6  1  -0.00000  0.39174  0.75000  1
 Nd  Nd1  1  0.24627  0.00000  0.25000  1
 Nd  Nd2  1  0.75373  -0.00000  0.75000  1
 Nd  Nd3  1  0.24627  0.24627  0.75000  1
 Nd  Nd4  1  0.00000  0.24627  0.25000  1
 Nd  Nd5  1  0.75373  0.75373  0.25000  1
 Nd  Nd6  1  -0.00000  0.75373  0.75000  1
 Nd  Nd7  1  0.33333  0.66667  0.50000  1
 Nd  Nd8  1  0.66667  0.33333  0.00000  1
 Nd  Nd9  1  0.66667  0.33333  0.50000  1
 Nd  Nd10  1  0.33333  0.66667  0.00000  1
