CIF file written using JARVIS-Tools package.
data_CoAs3
_symmetry_space_group_name_H-M  'Im-3'
_cell_length_a       7.18356
_cell_length_b       7.18356
_cell_length_c       7.18356
_cell_angle_alpha    109.471
_cell_angle_beta     109.471
_cell_angle_gamma    109.471

_symmetry_Int_Tables_number  204
_chemical_formula_structural  CoAs3
_chemical_formula_sum  Co4As2
_cell_volume  285.3627790937951
_cell_formula_units_Z  4
loop_
  _symmetry_equiv_pos_site_id
 _symmetry_equiv_pos_as_xyz
 1  'x, y, z'
loop_
 _atom_site_type_symbol
 _atom_site_label
 _atom_site_symmetry_multiplicity
 _atom_site_fract_x
 _atom_site_fract_y
 _atom_site_fract_z
 _atom_site_fract_occupancy
 As  As1  1  0.65935  0.81087  0.15152  1
 As  As2  1  0.84848  0.34065  0.18913  1
 As  As3  1  0.65935  0.50783  0.84848  1
 As  As4  1  0.34065  0.49217  0.15152  1
 As  As5  1  0.15152  0.34065  0.49217  1
 As  As6  1  0.81087  0.15152  0.65935  1
 As  As7  1  0.18913  0.84848  0.34065  1
 As  As8  1  0.50783  0.84848  0.65935  1
 As  As9  1  0.84848  0.65935  0.50783  1
 As  As10  1  0.34065  0.18913  0.84848  1
 As  As11  1  0.15152  0.65935  0.81087  1
 As  As12  1  0.49217  0.15152  0.34065  1
 Co  Co1  1  0.50000  0.00000  -0.00000  1
 Co  Co2  1  0.00000  0.00000  0.50000  1
 Co  Co3  1  0.00000  0.50000  0.00000  1
 Co  Co4  1  0.50000  0.50000  0.50000  1
