CIF file written using JARVIS-Tools package.
data_Li3V2F9
_symmetry_space_group_name_H-M  'C2'
_cell_length_a       5.17459
_cell_length_b       5.53707
_cell_length_c       7.32788
_cell_angle_alpha    83.2425
_cell_angle_beta     90
_cell_angle_gamma    117.857

_symmetry_Int_Tables_number  5
_chemical_formula_structural  Li3V2F9
_chemical_formula_sum  Li3V2F9
_cell_volume  183.97672969187602
_cell_formula_units_Z  1
loop_
  _symmetry_equiv_pos_site_id
 _symmetry_equiv_pos_as_xyz
 1  'x, y, z'
loop_
 _atom_site_type_symbol
 _atom_site_label
 _atom_site_symmetry_multiplicity
 _atom_site_fract_x
 _atom_site_fract_y
 _atom_site_fract_z
 _atom_site_fract_occupancy
 F  F1  1  0.97769  0.49106  0.95276  1
 F  F2  1  0.26800  0.92091  0.66712  1
 F  F3  1  0.35783  0.50812  0.64548  1
 F  F4  1  0.78867  0.95856  0.80229  1
 F  F5  1  0.48662  0.50894  0.04724  1
 F  F6  1  0.34708  0.07909  0.33288  1
 F  F7  1  0.38157  0.00000  -0.00000  1
 F  F8  1  0.84971  0.49188  0.35452  1
 F  F9  1  0.83012  0.04144  0.19771  1
 Li  Li1  1  0.18321  0.72078  0.46278  1
 Li  Li2  1  0.01655  0.00000  -0.00000  1
 Li  Li3  1  0.46243  0.27922  0.53722  1
 V  V1  1  0.38555  0.72078  0.84821  1
 V  V2  1  0.66477  0.27922  0.15179  1
