CIF file written using JARVIS-Tools package.
data_HfCuGe2
_symmetry_space_group_name_H-M  'P4/nmm'
_cell_length_a       3.8025
_cell_length_b       3.8025
_cell_length_c       9.13057
_cell_angle_alpha    90
_cell_angle_beta     90
_cell_angle_gamma    90

_symmetry_Int_Tables_number  129
_chemical_formula_structural  HfCuGe2
_chemical_formula_sum  Hf2Cu2Ge4
_cell_volume  132.01865557642935
_cell_formula_units_Z  2
loop_
  _symmetry_equiv_pos_site_id
 _symmetry_equiv_pos_as_xyz
 1  'x, y, z'
loop_
 _atom_site_type_symbol
 _atom_site_label
 _atom_site_symmetry_multiplicity
 _atom_site_fract_x
 _atom_site_fract_y
 _atom_site_fract_z
 _atom_site_fract_occupancy
 Cu  Cu1  1  0.25000  0.75000  0.50000  1
 Cu  Cu2  1  0.75000  0.25000  0.50000  1
 Ge  Ge1  1  0.25000  0.75000  0.00000  1
 Ge  Ge2  1  0.75000  0.25000  0.00000  1
 Ge  Ge3  1  0.75000  0.75000  0.32110  1
 Ge  Ge4  1  0.25000  0.25000  0.67890  1
 Hf  Hf1  1  0.75000  0.75000  0.76321  1
 Hf  Hf2  1  0.25000  0.25000  0.23679  1
