CIF file written using JARVIS-Tools package.
data_CrPO4
_symmetry_space_group_name_H-M  'Fdd2'
_cell_length_a       5.27883
_cell_length_b       6.33016
_cell_length_c       5.27888
_cell_angle_alpha    77.7385
_cell_angle_beta     60.6152
_cell_angle_gamma    102.261

_symmetry_Int_Tables_number  43
_chemical_formula_structural  CrPO4
_chemical_formula_sum  Cr2P2O8
_cell_volume  139.42958237720572
_cell_formula_units_Z  2
loop_
  _symmetry_equiv_pos_site_id
 _symmetry_equiv_pos_as_xyz
 1  'x, y, z'
loop_
 _atom_site_type_symbol
 _atom_site_label
 _atom_site_symmetry_multiplicity
 _atom_site_fract_x
 _atom_site_fract_y
 _atom_site_fract_z
 _atom_site_fract_occupancy
 Cr  Cr1  1  0.81709  0.25000  0.81709  1
 Cr  Cr2  1  0.56709  0.75000  0.56709  1
 O  O1  1  0.71135  0.63349  0.23691  1
 O  O2  1  0.81884  0.07047  0.22099  1
 O  O3  1  0.07786  0.36651  0.37039  1
 O  O4  1  0.23691  0.86651  0.71134  1
 O  O5  1  0.74837  0.92953  0.79147  1
 O  O6  1  0.22099  0.42953  0.81884  1
 O  O7  1  0.79147  0.57047  0.74837  1
 O  O8  1  0.37039  0.13349  0.07786  1
 P  P1  1  0.13167  0.25000  0.13167  1
 P  P2  1  0.88167  0.75000  0.88167  1
