CIF file written using JARVIS-Tools package.
data_Ga3Ni5
_symmetry_space_group_name_H-M  'Cmmm'
_cell_length_a       3.75187
_cell_length_b       5.06765
_cell_length_c       5.06765
_cell_angle_alpha    96.605
_cell_angle_beta     90
_cell_angle_gamma    90

_symmetry_Int_Tables_number  65
_chemical_formula_structural  Ga3Ni5
_chemical_formula_sum  Ga3Ni5
_cell_volume  95.71251938233954
_cell_formula_units_Z  1
loop_
  _symmetry_equiv_pos_site_id
 _symmetry_equiv_pos_as_xyz
 1  'x, y, z'
loop_
 _atom_site_type_symbol
 _atom_site_label
 _atom_site_symmetry_multiplicity
 _atom_site_fract_x
 _atom_site_fract_y
 _atom_site_fract_z
 _atom_site_fract_occupancy
 Ga  Ga1  1  0.50000  0.71617  0.28383  1
 Ga  Ga2  1  0.50000  0.28383  0.71617  1
 Ga  Ga3  1  0.00000  0.00000  0.00000  1
 Ni  Ni1  1  0.50000  0.77755  0.77755  1
 Ni  Ni2  1  0.50000  0.22245  0.22245  1
 Ni  Ni3  1  0.00000  -0.00000  0.50000  1
 Ni  Ni4  1  0.00000  0.50000  0.50000  1
 Ni  Ni5  1  0.00000  0.50000  -0.00000  1
