CIF file written using JARVIS-Tools package.
data_K4V2O7
_symmetry_space_group_name_H-M  'C2/m'
_cell_length_a       6.05356
_cell_length_b       6.05356
_cell_length_c       7.21972
_cell_angle_alpha    79.3917
_cell_angle_beta     79.3917
_cell_angle_gamma    61.8019

_symmetry_Int_Tables_number  12
_chemical_formula_structural  K4V2O7
_chemical_formula_sum  K4V2O7
_cell_volume  227.74160783161042
_cell_formula_units_Z  1
loop_
  _symmetry_equiv_pos_site_id
 _symmetry_equiv_pos_as_xyz
 1  'x, y, z'
loop_
 _atom_site_type_symbol
 _atom_site_label
 _atom_site_symmetry_multiplicity
 _atom_site_fract_x
 _atom_site_fract_y
 _atom_site_fract_z
 _atom_site_fract_occupancy
 K  K1  1  0.67534  0.67534  0.29936  1
 K  K2  1  0.32466  0.32466  0.70064  1
 K  K3  1  0.00000  -0.00000  0.50000  1
 K  K4  1  0.00000  0.00000  0.00000  1
 O  O1  1  0.78856  0.78856  0.85837  1
 O  O2  1  0.84526  0.39719  0.66840  1
 O  O3  1  0.21144  0.21144  0.14163  1
 O  O4  1  0.60281  0.15474  0.33160  1
 O  O5  1  0.39719  0.84526  0.66840  1
 O  O6  1  0.50000  0.50000  0.00000  1
 O  O7  1  0.15474  0.60281  0.33160  1
 V  V1  1  0.63899  0.63899  0.79641  1
 V  V2  1  0.36101  0.36101  0.20359  1
