CIF file written using JARVIS-Tools package.
data_SrB2S4
_symmetry_space_group_name_H-M  'P2_1/c'
_cell_length_a       6.10954
_cell_length_b       6.48083
_cell_length_c       14.2128
_cell_angle_alpha    90
_cell_angle_beta     90
_cell_angle_gamma    110.564

_symmetry_Int_Tables_number  14
_chemical_formula_structural  SrB2S4
_chemical_formula_sum  Sr4B8S6
_cell_volume  526.8968808018292
_cell_formula_units_Z  4
loop_
  _symmetry_equiv_pos_site_id
 _symmetry_equiv_pos_as_xyz
 1  'x, y, z'
loop_
 _atom_site_type_symbol
 _atom_site_label
 _atom_site_symmetry_multiplicity
 _atom_site_fract_x
 _atom_site_fract_y
 _atom_site_fract_z
 _atom_site_fract_occupancy
 B  B1  1  0.43133  0.03509  0.91562  1
 B  B2  1  0.18118  0.23237  0.77231  1
 B  B3  1  0.31882  0.76763  0.27231  1
 B  B4  1  0.06867  0.96491  0.41562  1
 B  B5  1  0.68118  0.23237  0.72769  1
 B  B6  1  0.81882  0.76763  0.22769  1
 B  B7  1  0.93133  0.03509  0.58438  1
 B  B8  1  0.56867  0.96491  0.08438  1
 S  S1  1  0.17108  0.13292  0.90083  1
 S  S2  1  0.82892  0.86708  0.09917  1
 S  S3  1  0.00279  0.57978  0.23808  1
 S  S4  1  0.50279  0.57978  0.26192  1
 S  S5  1  0.99721  0.42022  0.76192  1
 S  S6  1  0.49721  0.42022  0.73808  1
 S  S7  1  0.14858  0.23585  0.49227  1
 S  S8  1  0.32892  0.86708  0.40083  1
 S  S9  1  0.05950  0.97123  0.69633  1
 S  S10  1  0.67108  0.13292  0.59917  1
 S  S11  1  0.94050  0.02877  0.30367  1
 S  S12  1  0.85142  0.76415  0.50773  1
 S  S13  1  0.64858  0.23585  0.00773  1
 S  S14  1  0.44050  0.02877  0.19633  1
 S  S15  1  0.35142  0.76415  0.99227  1
 S  S16  1  0.55950  0.97123  0.80367  1
 Sr  Sr1  1  0.30351  0.68801  0.60218  1
 Sr  Sr2  1  0.69649  0.31199  0.39782  1
 Sr  Sr3  1  0.80351  0.68801  0.89782  1
 Sr  Sr4  1  0.19649  0.31199  0.10218  1
