CIF file written using JARVIS-Tools package.
data_PdSCl
_symmetry_space_group_name_H-M  'P2_1/m'
_cell_length_a       7.7294
_cell_length_b       11.9791
_cell_length_c       9.23381
_cell_angle_alpha    90
_cell_angle_beta     110.737
_cell_angle_gamma    90

_symmetry_Int_Tables_number  11
_chemical_formula_structural  PdSCl
_chemical_formula_sum  Pd2S2Cl2
_cell_volume  799.5809376172202
_cell_formula_units_Z  12
loop_
  _symmetry_equiv_pos_site_id
 _symmetry_equiv_pos_as_xyz
 1  'x, y, z'
loop_
 _atom_site_type_symbol
 _atom_site_label
 _atom_site_symmetry_multiplicity
 _atom_site_fract_x
 _atom_site_fract_y
 _atom_site_fract_z
 _atom_site_fract_occupancy
 Cl  Cl1  1  0.27113  0.39606  0.01406  1
 Cl  Cl2  1  0.85973  0.39708  0.69557  1
 Cl  Cl3  1  0.85973  0.10292  0.69557  1
 Cl  Cl4  1  0.14027  0.60292  0.30443  1
 Cl  Cl5  1  0.14027  0.89708  0.30443  1
 Cl  Cl6  1  0.16819  0.25000  0.56807  1
 Cl  Cl7  1  0.72887  0.89606  0.98594  1
 Cl  Cl8  1  0.41229  0.75000  0.11374  1
 Cl  Cl9  1  0.27113  0.10394  0.01406  1
 Cl  Cl10  1  0.72887  0.60394  0.98594  1
 Cl  Cl11  1  0.58771  0.25000  0.88626  1
 Cl  Cl12  1  0.83181  0.75000  0.43193  1
 Pd  Pd1  1  0.60363  0.37253  0.09801  1
 Pd  Pd2  1  0.39637  0.87253  0.90199  1
 Pd  Pd3  1  0.34905  0.75000  0.43956  1
 Pd  Pd4  1  0.65095  0.25000  0.56044  1
 Pd  Pd5  1  0.65881  0.75000  0.79529  1
 Pd  Pd6  1  0.09013  0.87453  0.54671  1
 Pd  Pd7  1  0.90987  0.12547  0.45329  1
 Pd  Pd8  1  0.09013  0.62547  0.54671  1
 Pd  Pd9  1  0.34119  0.25000  0.20471  1
 Pd  Pd10  1  0.90987  0.37453  0.45329  1
 Pd  Pd11  1  0.60363  0.12747  0.09801  1
 Pd  Pd12  1  0.39637  0.62747  0.90199  1
 S  S1  1  0.36034  0.97046  0.67811  1
 S  S2  1  0.45132  0.12140  0.40166  1
 S  S3  1  0.36034  0.52954  0.67811  1
 S  S4  1  0.63966  0.02954  0.32189  1
 S  S5  1  0.54868  0.62140  0.59834  1
 S  S6  1  0.63966  0.47046  0.32189  1
 S  S7  1  0.45132  0.37860  0.40166  1
 S  S8  1  0.08192  0.83967  0.79133  1
 S  S9  1  0.08192  0.66033  0.79133  1
 S  S10  1  0.91808  0.16033  0.20867  1
 S  S11  1  0.91808  0.33967  0.20867  1
 S  S12  1  0.54868  0.87860  0.59834  1
