CIF file written using JARVIS-Tools package.
data_KBiP2S6
_symmetry_space_group_name_H-M  'P2_1'
_cell_length_a       6.65451
_cell_length_b       7.39464
_cell_length_c       9.86115
_cell_angle_alpha    90
_cell_angle_beta     91.751
_cell_angle_gamma    90

_symmetry_Int_Tables_number  4
_chemical_formula_structural  KBiP2S6
_chemical_formula_sum  K2Bi2P4S2
_cell_volume  485.0178546592408
_cell_formula_units_Z  2
loop_
  _symmetry_equiv_pos_site_id
 _symmetry_equiv_pos_as_xyz
 1  'x, y, z'
loop_
 _atom_site_type_symbol
 _atom_site_label
 _atom_site_symmetry_multiplicity
 _atom_site_fract_x
 _atom_site_fract_y
 _atom_site_fract_z
 _atom_site_fract_occupancy
 Bi  Bi1  1  0.21604  0.20826  0.01632  1
 Bi  Bi2  1  0.78396  0.70826  0.98368  1
 K  K1  1  0.69704  0.47274  0.49755  1
 K  K2  1  0.30296  0.97274  0.50245  1
 P  P1  1  0.31518  0.68909  0.17509  1
 P  P2  1  0.80404  0.96041  0.69806  1
 P  P3  1  0.68482  0.18909  0.82491  1
 P  P4  1  0.19596  0.46041  0.30194  1
 S  S1  1  0.57748  0.77642  0.25856  1
 S  S2  1  0.08779  0.87955  0.17457  1
 S  S3  1  0.59172  0.76467  0.72577  1
 S  S4  1  0.35270  0.57354  0.98544  1
 S  S5  1  0.16752  0.54561  0.49071  1
 S  S6  1  0.83248  0.04561  0.50929  1
 S  S7  1  0.64730  0.07354  0.01456  1
 S  S8  1  0.05797  0.87859  0.80894  1
 S  S9  1  0.94203  0.37859  0.19106  1
 S  S10  1  0.91221  0.37955  0.82543  1
 S  S11  1  0.40828  0.26467  0.27423  1
 S  S12  1  0.42252  0.27642  0.74144  1
