CIF file written using JARVIS-Tools package.
data_TeO3
_symmetry_space_group_name_H-M  'R-3c'
_cell_length_a       5.27436
_cell_length_b       5.27436
_cell_length_c       5.27435
_cell_angle_alpha    56.317
_cell_angle_beta     56.317
_cell_angle_gamma    56.317

_symmetry_Int_Tables_number  167
_chemical_formula_structural  TeO3
_chemical_formula_sum  Te2O6
_cell_volume  94.9114237590405
_cell_formula_units_Z  2
loop_
  _symmetry_equiv_pos_site_id
 _symmetry_equiv_pos_as_xyz
 1  'x, y, z'
loop_
 _atom_site_type_symbol
 _atom_site_label
 _atom_site_symmetry_multiplicity
 _atom_site_fract_x
 _atom_site_fract_y
 _atom_site_fract_z
 _atom_site_fract_occupancy
 O  O1  1  0.89436  0.60564  0.25000  1
 O  O2  1  0.25000  0.89436  0.60564  1
 O  O3  1  0.60564  0.25000  0.89436  1
 O  O4  1  0.10564  0.39436  0.75000  1
 O  O5  1  0.75000  0.10564  0.39436  1
 O  O6  1  0.39436  0.75000  0.10564  1
 Te  Te1  1  0.00000  0.00000  0.00000  1
 Te  Te2  1  0.50000  0.50000  0.50000  1
