CIF file written using JARVIS-Tools package.
data_PaI3
_symmetry_space_group_name_H-M  'P6_3/mmc'
_cell_length_a       10.5801
_cell_length_b       10.5812
_cell_length_c       3.90202
_cell_angle_alpha    89.9879
_cell_angle_beta     90.0166
_cell_angle_gamma    119.994

_symmetry_Int_Tables_number  194
_chemical_formula_structural  PaI3
_chemical_formula_sum  Pa2I6
_cell_volume  378.3282615666878
_cell_formula_units_Z  2
loop_
  _symmetry_equiv_pos_site_id
 _symmetry_equiv_pos_as_xyz
 1  'x, y, z'
loop_
 _atom_site_type_symbol
 _atom_site_label
 _atom_site_symmetry_multiplicity
 _atom_site_fract_x
 _atom_site_fract_y
 _atom_site_fract_z
 _atom_site_fract_occupancy
 I  I1  1  0.79862  0.20175  0.75019  1
 I  I2  1  0.40315  0.20138  0.74985  1
 I  I3  1  0.79821  0.59680  0.74997  1
 I  I4  1  0.20140  0.79826  0.24981  1
 I  I5  1  0.59685  0.79860  0.25015  1
 I  I6  1  0.20178  0.40321  0.25003  1
 Pa  Pa1  1  0.66666  0.33331  0.25001  1
 Pa  Pa2  1  0.33334  0.66668  0.75000  1
