CIF file written using JARVIS-Tools package.
data_HfBrN
_symmetry_space_group_name_H-M  'R-3m'
_cell_length_a       10.0324
_cell_length_b       10.0324
_cell_length_c       10.0324
_cell_angle_alpha    20.7663
_cell_angle_beta     20.7664
_cell_angle_gamma    20.7664

_symmetry_Int_Tables_number  166
_chemical_formula_structural  HfBrN
_chemical_formula_sum  Hf2Br2N2
_cell_volume  111.13552414068403
_cell_formula_units_Z  2
loop_
  _symmetry_equiv_pos_site_id
 _symmetry_equiv_pos_as_xyz
 1  'x, y, z'
loop_
 _atom_site_type_symbol
 _atom_site_label
 _atom_site_symmetry_multiplicity
 _atom_site_fract_x
 _atom_site_fract_y
 _atom_site_fract_z
 _atom_site_fract_occupancy
 Br  Br1  1  0.38874  0.38874  0.38874  1
 Br  Br2  1  0.61126  0.61126  0.61126  1
 Hf  Hf1  1  0.78932  0.78932  0.78932  1
 Hf  Hf2  1  0.21068  0.21068  0.21068  1
 N  N1  1  0.86268  0.86268  0.86268  1
 N  N2  1  0.13732  0.13732  0.13732  1
