CIF file written using JARVIS-Tools package.
data_Sr2Cd2CuS2O2
_symmetry_space_group_name_H-M  'I4/mmm'
_cell_length_a       4.03491
_cell_length_b       4.03491
_cell_length_c       10.7464
_cell_angle_alpha    100.82
_cell_angle_beta     100.82
_cell_angle_gamma    90

_symmetry_Int_Tables_number  139
_chemical_formula_structural  Sr2Cd2CuS2O2
_chemical_formula_sum  Sr2Cd2CuS2O2
_cell_volume  168.67864189576164
_cell_formula_units_Z  1
loop_
  _symmetry_equiv_pos_site_id
 _symmetry_equiv_pos_as_xyz
 1  'x, y, z'
loop_
 _atom_site_type_symbol
 _atom_site_label
 _atom_site_symmetry_multiplicity
 _atom_site_fract_x
 _atom_site_fract_y
 _atom_site_fract_z
 _atom_site_fract_occupancy
 Cd  Cd1  1  0.75000  0.25000  0.50000  1
 Cd  Cd2  1  0.25000  0.75000  0.50000  1
 Cu  Cu1  1  0.00000  0.00000  0.00000  1
 O  O1  1  0.50000  0.00000  -0.00000  1
 O  O2  1  0.00000  0.50000  0.00000  1
 S  S1  1  0.85915  0.85915  0.71830  1
 S  S2  1  0.14085  0.14085  0.28170  1
 Sr  Sr1  1  0.57908  0.57908  0.15816  1
 Sr  Sr2  1  0.42092  0.42092  0.84184  1
