CIF file written using JARVIS-Tools package.
data_ScGaO3
_symmetry_space_group_name_H-M  'P6_3/mmc'
_cell_length_a       3.31193
_cell_length_b       3.31194
_cell_length_c       11.8652
_cell_angle_alpha    89.9978
_cell_angle_beta     90.0025
_cell_angle_gamma    120

_symmetry_Int_Tables_number  194
_chemical_formula_structural  ScGaO3
_chemical_formula_sum  Sc2Ga2O6
_cell_volume  112.7118850257197
_cell_formula_units_Z  2
loop_
  _symmetry_equiv_pos_site_id
 _symmetry_equiv_pos_as_xyz
 1  'x, y, z'
loop_
 _atom_site_type_symbol
 _atom_site_label
 _atom_site_symmetry_multiplicity
 _atom_site_fract_x
 _atom_site_fract_y
 _atom_site_fract_z
 _atom_site_fract_occupancy
 Ga  Ga1  1  0.33334  0.66666  0.25000  1
 Ga  Ga2  1  0.66667  0.33334  0.75000  1
 O  O1  1  0.33333  0.66672  0.08353  1
 O  O2  1  0.00001  0.00000  0.25000  1
 O  O3  1  0.33334  0.66667  0.41647  1
 O  O4  1  -0.00001  0.00000  0.75000  1
 O  O5  1  0.66667  0.33333  0.58352  1
 O  O6  1  0.66665  0.33339  0.91648  1
 Sc  Sc1  1  0.99999  0.00007  0.00000  1
 Sc  Sc2  1  0.00001  0.00000  0.50000  1
