CIF file written using JARVIS-Tools package.
data_Hf2Ag
_symmetry_space_group_name_H-M  'I4/mmm'
_cell_length_a       3.20621
_cell_length_b       3.20622
_cell_length_c       6.37804
_cell_angle_alpha    104.557
_cell_angle_beta     104.557
_cell_angle_gamma    89.9999

_symmetry_Int_Tables_number  139
_chemical_formula_structural  Hf2Ag
_chemical_formula_sum  Hf2Ag
_cell_volume  61.28310583391982
_cell_formula_units_Z  1
loop_
  _symmetry_equiv_pos_site_id
 _symmetry_equiv_pos_as_xyz
 1  'x, y, z'
loop_
 _atom_site_type_symbol
 _atom_site_label
 _atom_site_symmetry_multiplicity
 _atom_site_fract_x
 _atom_site_fract_y
 _atom_site_fract_z
 _atom_site_fract_occupancy
 Ag  Ag1  1  0.00000  0.00000  0.00000  1
 Hf  Hf1  1  0.33478  0.33478  0.66956  1
 Hf  Hf2  1  0.66522  0.66522  0.33044  1
