CIF file written using JARVIS-Tools package.
data_BaCu8P4
_symmetry_space_group_name_H-M  'I4/m'
_cell_length_a       3.89642
_cell_length_b       7.51318
_cell_length_c       7.51318
_cell_angle_alpha    86.1445
_cell_angle_beta     74.9712
_cell_angle_gamma    74.9711

_symmetry_Int_Tables_number  87
_chemical_formula_structural  BaCu8P4
_chemical_formula_sum  BaCu8P4
_cell_volume  205.15578323364562
_cell_formula_units_Z  1
loop_
  _symmetry_equiv_pos_site_id
 _symmetry_equiv_pos_as_xyz
 1  'x, y, z'
loop_
 _atom_site_type_symbol
 _atom_site_label
 _atom_site_symmetry_multiplicity
 _atom_site_fract_x
 _atom_site_fract_y
 _atom_site_fract_z
 _atom_site_fract_occupancy
 Ba  Ba1  1  0.00000  0.00000  0.00000  1
 Cu  Cu1  1  0.66096  0.10948  0.56860  1
 Cu  Cu2  1  0.77044  0.56860  0.89052  1
 Cu  Cu3  1  0.63515  0.37905  0.35065  1
 Cu  Cu4  1  0.36485  0.62095  0.64935  1
 Cu  Cu5  1  0.98580  0.64935  0.37905  1
 Cu  Cu6  1  0.22956  0.43140  0.10948  1
 Cu  Cu7  1  0.01420  0.35065  0.62095  1
 Cu  Cu8  1  0.33904  0.89052  0.43140  1
 P  P1  1  0.76561  0.80914  0.65965  1
 P  P2  1  0.23439  0.19086  0.34035  1
 P  P3  1  0.42526  0.34035  0.80914  1
 P  P4  1  0.57474  0.65965  0.19086  1
