CIF file written using JARVIS-Tools package.
data_BaPbO3
_symmetry_space_group_name_H-M  'Imma'
_cell_length_a       6.10265
_cell_length_b       6.13068
_cell_length_c       6.13069
_cell_angle_alpha    89.5505
_cell_angle_beta     60.1466
_cell_angle_gamma    60.1466

_symmetry_Int_Tables_number  74
_chemical_formula_structural  BaPbO3
_chemical_formula_sum  Ba2Pb2O6
_cell_volume  163.5218490368893
_cell_formula_units_Z  2
loop_
  _symmetry_equiv_pos_site_id
 _symmetry_equiv_pos_as_xyz
 1  'x, y, z'
loop_
 _atom_site_type_symbol
 _atom_site_label
 _atom_site_symmetry_multiplicity
 _atom_site_fract_x
 _atom_site_fract_y
 _atom_site_fract_z
 _atom_site_fract_occupancy
 Ba  Ba1  1  0.99435  0.25564  0.25564  1
 Ba  Ba2  1  0.00565  0.74436  0.74436  1
 O  O1  1  0.42983  0.82008  0.82008  1
 O  O2  1  0.57017  0.17992  0.17992  1
 O  O3  1  0.00000  0.71002  0.28998  1
 O  O4  1  -0.00000  0.28998  0.71002  1
 O  O5  1  0.50000  0.71009  0.28991  1
 O  O6  1  0.50000  0.28991  0.71009  1
 Pb  Pb1  1  0.50000  0.00000  0.50000  1
 Pb  Pb2  1  0.50000  0.50000  -0.00000  1
