CIF file written using JARVIS-Tools package.
data_CaZn2
_symmetry_space_group_name_H-M  'Imma'
_cell_length_a       4.55775
_cell_length_b       5.73667
_cell_length_c       5.73666
_cell_angle_alpha    79.281
_cell_angle_beta     66.5937
_cell_angle_gamma    66.5937

_symmetry_Int_Tables_number  74
_chemical_formula_structural  CaZn2
_chemical_formula_sum  Ca2Zn4
_cell_volume  126.2519934429024
_cell_formula_units_Z  2
loop_
  _symmetry_equiv_pos_site_id
 _symmetry_equiv_pos_as_xyz
 1  'x, y, z'
loop_
 _atom_site_type_symbol
 _atom_site_label
 _atom_site_symmetry_multiplicity
 _atom_site_fract_x
 _atom_site_fract_y
 _atom_site_fract_z
 _atom_site_fract_occupancy
 Ca  Ca1  1  0.54707  0.70293  0.20293  1
 Ca  Ca2  1  0.45293  0.29707  0.79707  1
 Zn  Zn1  1  0.16449  0.27839  0.39262  1
 Zn  Zn2  1  0.83551  0.72161  0.60738  1
 Zn  Zn3  1  0.16449  0.89262  0.77839  1
 Zn  Zn4  1  0.83551  0.10738  0.22161  1
