CIF file written using JARVIS-Tools package.
data_Tm2Ge2O7
_symmetry_space_group_name_H-M  'P4_12_12'
_cell_length_a       6.78072
_cell_length_b       6.78072
_cell_length_c       12.3471
_cell_angle_alpha    90
_cell_angle_beta     90
_cell_angle_gamma    90

_symmetry_Int_Tables_number  92
_chemical_formula_structural  Tm2Ge2O7
_chemical_formula_sum  Tm8Ge8O28
_cell_volume  567.6984012153816
_cell_formula_units_Z  4
loop_
  _symmetry_equiv_pos_site_id
 _symmetry_equiv_pos_as_xyz
 1  'x, y, z'
loop_
 _atom_site_type_symbol
 _atom_site_label
 _atom_site_symmetry_multiplicity
 _atom_site_fract_x
 _atom_site_fract_y
 _atom_site_fract_z
 _atom_site_fract_occupancy
 Ge  Ge1  1  0.10166  0.85007  0.11780  1
 Ge  Ge2  1  0.89834  0.14993  0.61780  1
 Ge  Ge3  1  0.64993  0.60166  0.36780  1
 Ge  Ge4  1  0.39834  0.35007  0.13220  1
 Ge  Ge5  1  0.35007  0.39834  0.86780  1
 Ge  Ge6  1  0.60166  0.64993  0.63220  1
 Ge  Ge7  1  0.14993  0.89834  0.38220  1
 Ge  Ge8  1  0.85007  0.10166  0.88220  1
 O  O1  1  0.83787  0.43333  0.32050  1
 O  O2  1  0.64402  0.82292  0.29310  1
 O  O3  1  0.43333  0.83787  0.67950  1
 O  O4  1  0.93333  0.66213  0.07050  1
 O  O5  1  0.33787  0.06667  0.42950  1
 O  O6  1  0.66213  0.93333  0.92950  1
 O  O7  1  0.67708  0.14402  0.54310  1
 O  O8  1  0.53609  0.57942  0.87169  1
 O  O9  1  0.35598  0.17708  0.79310  1
 O  O10  1  0.96391  0.07942  0.37831  1
 O  O11  1  0.17708  0.35598  0.20690  1
 O  O12  1  0.82292  0.64402  0.70690  1
 O  O13  1  0.32292  0.85598  0.04310  1
 O  O14  1  0.14402  0.67708  0.45690  1
 O  O15  1  0.85598  0.32292  0.95690  1
 O  O16  1  0.07942  0.96391  0.62169  1
 O  O17  1  0.16213  0.56667  0.82050  1
 O  O18  1  0.03609  0.92058  0.87831  1
 O  O19  1  0.42058  0.46391  0.62831  1
 O  O20  1  0.92058  0.03609  0.12169  1
 O  O21  1  0.80057  0.19943  0.75000  1
 O  O22  1  0.30057  0.30057  0.00000  1
 O  O23  1  0.69943  0.69943  0.50000  1
 O  O24  1  0.06667  0.33787  0.57050  1
 O  O25  1  0.56667  0.16213  0.17950  1
 O  O26  1  0.46391  0.42058  0.37169  1
 O  O27  1  0.57942  0.53609  0.12831  1
 O  O28  1  0.19943  0.80057  0.25000  1
 Tm  Tm1  1  0.87248  0.35567  0.13596  1
 Tm  Tm2  1  0.14433  0.37248  0.38596  1
 Tm  Tm3  1  0.85567  0.62752  0.88596  1
 Tm  Tm4  1  0.37248  0.14433  0.61404  1
 Tm  Tm5  1  0.62752  0.85567  0.11404  1
 Tm  Tm6  1  0.12752  0.64433  0.63596  1
 Tm  Tm7  1  0.35567  0.87248  0.86404  1
 Tm  Tm8  1  0.64433  0.12752  0.36404  1
