CIF file written using JARVIS-Tools package.
data_Sr2CaIrO6
_symmetry_space_group_name_H-M  'P2_1/c'
_cell_length_a       5.77978
_cell_length_b       5.8826
_cell_length_c       10.0176
_cell_angle_alpha    90
_cell_angle_beta     124.865
_cell_angle_gamma    90

_symmetry_Int_Tables_number  14
_chemical_formula_structural  Sr2CaIrO6
_chemical_formula_sum  Sr4Ca2Ir2O2
_cell_volume  279.46192336948127
_cell_formula_units_Z  2
loop_
  _symmetry_equiv_pos_site_id
 _symmetry_equiv_pos_as_xyz
 1  'x, y, z'
loop_
 _atom_site_type_symbol
 _atom_site_label
 _atom_site_symmetry_multiplicity
 _atom_site_fract_x
 _atom_site_fract_y
 _atom_site_fract_z
 _atom_site_fract_occupancy
 Ca  Ca1  1  0.50000  0.50000  0.50000  1
 Ca  Ca2  1  0.50000  0.00000  0.00000  1
 Ir  Ir1  1  -0.00000  0.00000  0.50000  1
 Ir  Ir2  1  0.00000  0.50000  0.00000  1
 O  O1  1  0.76797  0.30889  0.03957  1
 O  O2  1  0.30845  0.02114  0.73027  1
 O  O3  1  0.23203  0.69111  0.96043  1
 O  O4  1  0.69155  0.97886  0.26973  1
 O  O5  1  0.30845  0.47886  0.23027  1
 O  O6  1  0.69155  0.52114  0.76973  1
 O  O7  1  0.14287  0.22867  0.95622  1
 O  O8  1  0.76797  0.19111  0.53957  1
 O  O9  1  0.85713  0.77133  0.04378  1
 O  O10  1  0.85713  0.72867  0.54378  1
 O  O11  1  0.23203  0.80889  0.46043  1
 O  O12  1  0.14287  0.27133  0.45622  1
 Sr  Sr1  1  0.75937  0.95572  0.74972  1
 Sr  Sr2  1  0.24063  0.45572  0.75028  1
 Sr  Sr3  1  0.75937  0.54428  0.24972  1
 Sr  Sr4  1  0.24063  0.04428  0.25028  1
