CIF file written using JARVIS-Tools package.
data_Na3Ca2BiO6
_symmetry_space_group_name_H-M  'Fddd'
_cell_length_a       5.89294
_cell_length_b       5.89294
_cell_length_c       10.6029
_cell_angle_alpha    100.518
_cell_angle_beta     100.518
_cell_angle_gamma    110.068

_symmetry_Int_Tables_number  70
_chemical_formula_structural  Na3Ca2BiO6
_chemical_formula_sum  Na6Ca4Bi2O2
_cell_volume  327.83250227187966
_cell_formula_units_Z  2
loop_
  _symmetry_equiv_pos_site_id
 _symmetry_equiv_pos_as_xyz
 1  'x, y, z'
loop_
 _atom_site_type_symbol
 _atom_site_label
 _atom_site_symmetry_multiplicity
 _atom_site_fract_x
 _atom_site_fract_y
 _atom_site_fract_z
 _atom_site_fract_occupancy
 Bi  Bi1  1  0.62500  0.37500  0.75000  1
 Bi  Bi2  1  0.37500  0.62500  0.25000  1
 Ca  Ca1  1  0.54448  0.79449  0.58898  1
 Ca  Ca2  1  0.79449  0.54448  0.08898  1
 Ca  Ca3  1  0.20551  0.45552  0.91102  1
 Ca  Ca4  1  0.45552  0.20551  0.41102  1
 Na  Na1  1  0.96219  0.71219  0.42437  1
 Na  Na2  1  0.87500  0.12500  0.25000  1
 Na  Na3  1  0.71219  0.96219  0.92437  1
 Na  Na4  1  0.03781  0.28781  0.57563  1
 Na  Na5  1  0.28781  0.03781  0.07563  1
 Na  Na6  1  0.12500  0.87500  0.75000  1
 O  O1  1  0.52797  0.76964  0.09399  1
 O  O2  1  0.39900  0.60100  0.75000  1
 O  O3  1  0.85100  0.14900  0.75000  1
 O  O4  1  0.23036  0.47203  0.40601  1
 O  O5  1  0.14900  0.85100  0.25000  1
 O  O6  1  0.47203  0.23036  0.90601  1
 O  O7  1  0.93398  0.67565  0.90601  1
 O  O8  1  0.32435  0.06602  0.59399  1
 O  O9  1  0.76964  0.52797  0.59399  1
 O  O10  1  0.67565  0.93398  0.40601  1
 O  O11  1  0.06602  0.32435  0.09399  1
 O  O12  1  0.60100  0.39900  0.25000  1
