CIF file written using JARVIS-Tools package.
data_Sr3P2O8
_symmetry_space_group_name_H-M  'R-3m'
_cell_length_a       7.32296
_cell_length_b       7.32297
_cell_length_c       7.32297
_cell_angle_alpha    43.4111
_cell_angle_beta     43.4111
_cell_angle_gamma    43.4111

_symmetry_Int_Tables_number  166
_chemical_formula_structural  Sr3P2O8
_chemical_formula_sum  Sr3P2O8
_cell_volume  168.24799218813413
_cell_formula_units_Z  1
loop_
  _symmetry_equiv_pos_site_id
 _symmetry_equiv_pos_as_xyz
 1  'x, y, z'
loop_
 _atom_site_type_symbol
 _atom_site_label
 _atom_site_symmetry_multiplicity
 _atom_site_fract_x
 _atom_site_fract_y
 _atom_site_fract_z
 _atom_site_fract_occupancy
 O  O1  1  0.27706  0.27706  0.74588  1
 O  O2  1  0.27706  0.74588  0.27706  1
 O  O3  1  0.74588  0.27706  0.27706  1
 O  O4  1  0.25412  0.72294  0.72294  1
 O  O5  1  0.72294  0.72294  0.25412  1
 O  O6  1  0.67087  0.67087  0.67087  1
 O  O7  1  0.32913  0.32913  0.32913  1
 O  O8  1  0.72294  0.25412  0.72294  1
 P  P1  1  0.40670  0.40670  0.40670  1
 P  P2  1  0.59330  0.59330  0.59330  1
 Sr  Sr1  1  0.20610  0.20610  0.20610  1
 Sr  Sr2  1  0.79390  0.79390  0.79390  1
 Sr  Sr3  1  0.00000  0.00000  0.00000  1
