CIF file written using JARVIS-Tools package.
data_Li2SO4
_symmetry_space_group_name_H-M  'P2_1/c'
_cell_length_a       8.16214
_cell_length_b       4.97306
_cell_length_c       8.39775
_cell_angle_alpha    90
_cell_angle_beta     107.913
_cell_angle_gamma    90

_symmetry_Int_Tables_number  14
_chemical_formula_structural  Li2SO4
_chemical_formula_sum  Li8S4O6
_cell_volume  324.3477116641115
_cell_formula_units_Z  4
loop_
  _symmetry_equiv_pos_site_id
 _symmetry_equiv_pos_as_xyz
 1  'x, y, z'
loop_
 _atom_site_type_symbol
 _atom_site_label
 _atom_site_symmetry_multiplicity
 _atom_site_fract_x
 _atom_site_fract_y
 _atom_site_fract_z
 _atom_site_fract_occupancy
 Li  Li1  1  0.05824  0.92141  0.87034  1
 Li  Li2  1  0.44176  0.42141  0.12966  1
 Li  Li3  1  0.94176  0.07859  0.12966  1
 Li  Li4  1  0.55824  0.57859  0.87034  1
 Li  Li5  1  0.29401  0.92738  0.61854  1
 Li  Li6  1  0.20599  0.42738  0.38146  1
 Li  Li7  1  0.70599  0.07262  0.38146  1
 Li  Li8  1  0.79401  0.57262  0.61854  1
 O  O1  1  0.78208  0.44820  0.40038  1
 O  O2  1  0.84940  0.86026  0.27835  1
 O  O3  1  0.65060  0.36026  0.72165  1
 O  O4  1  0.21792  0.55180  0.59962  1
 O  O5  1  0.28208  0.05180  0.40038  1
 O  O6  1  0.66683  0.51541  0.10421  1
 O  O7  1  0.15060  0.13974  0.72165  1
 O  O8  1  0.34940  0.63974  0.27835  1
 O  O9  1  0.97162  0.43720  0.22675  1
 O  O10  1  0.33317  0.48459  0.89579  1
 O  O11  1  0.83317  0.01541  0.89579  1
 O  O12  1  0.02838  0.56280  0.77325  1
 O  O13  1  0.52838  0.93720  0.77325  1
 O  O14  1  0.16683  0.98459  0.10421  1
 O  O15  1  0.47162  0.06280  0.22675  1
 O  O16  1  0.71792  0.94820  0.59962  1
 S  S1  1  0.18170  0.43257  0.74782  1
 S  S2  1  0.81830  0.56743  0.25218  1
 S  S3  1  0.68170  0.06743  0.74782  1
 S  S4  1  0.31830  0.93257  0.25218  1
