CIF file written using JARVIS-Tools package.
data_BaGe
_symmetry_space_group_name_H-M  'Cmcm'
_cell_length_a       4.33292
_cell_length_b       5.0643
_cell_length_c       6.56301
_cell_angle_alpha    112.695
_cell_angle_beta     90
_cell_angle_gamma    90

_symmetry_Int_Tables_number  63
_chemical_formula_structural  BaGe
_chemical_formula_sum  Ba2Ge2
_cell_volume  132.86294983275388
_cell_formula_units_Z  2
loop_
  _symmetry_equiv_pos_site_id
 _symmetry_equiv_pos_as_xyz
 1  'x, y, z'
loop_
 _atom_site_type_symbol
 _atom_site_label
 _atom_site_symmetry_multiplicity
 _atom_site_fract_x
 _atom_site_fract_y
 _atom_site_fract_z
 _atom_site_fract_occupancy
 Ba  Ba1  1  0.25000  0.86154  0.72308  1
 Ba  Ba2  1  0.75000  0.13846  0.27692  1
 Ge  Ge1  1  0.25000  0.56556  0.13113  1
 Ge  Ge2  1  0.75000  0.43444  0.86887  1
