CIF file written using JARVIS-Tools package.
data_Fe3PH6PbSO14
_symmetry_space_group_name_H-M  'R3m'
_cell_length_a       6.90582
_cell_length_b       6.90582
_cell_length_c       6.90582
_cell_angle_alpha    61.1202
_cell_angle_beta     61.1202
_cell_angle_gamma    61.1202

_symmetry_Int_Tables_number  160
_chemical_formula_structural  Fe3PH6PbSO14
_chemical_formula_sum  Fe3PH6PbSO4
_cell_volume  238.75045281398334
_cell_formula_units_Z  1
loop_
  _symmetry_equiv_pos_site_id
 _symmetry_equiv_pos_as_xyz
 1  'x, y, z'
loop_
 _atom_site_type_symbol
 _atom_site_label
 _atom_site_symmetry_multiplicity
 _atom_site_fract_x
 _atom_site_fract_y
 _atom_site_fract_z
 _atom_site_fract_occupancy
 Fe  Fe1  1  0.00444  0.00444  0.50102  1
 Fe  Fe2  1  0.00444  0.50102  0.00444  1
 Fe  Fe3  1  0.50102  0.00444  0.00444  1
 H  H1  1  0.31746  0.70626  0.31746  1
 H  H2  1  0.70626  0.31746  0.31746  1
 H  H3  1  0.31746  0.31746  0.70626  1
 H  H4  1  0.68976  0.68976  0.29444  1
 H  H5  1  0.29444  0.68976  0.68976  1
 H  H6  1  0.68976  0.29444  0.68976  1
 O  O1  1  0.26587  0.26587  0.88190  1
 O  O2  1  0.40233  0.40233  0.40233  1
 O  O3  1  0.49186  0.83964  0.83964  1
 O  O4  1  0.83964  0.83964  0.49186  1
 O  O5  1  0.83964  0.49186  0.83964  1
 O  O6  1  0.60748  0.60748  0.60748  1
 O  O7  1  0.15903  0.15903  0.52165  1
 O  O8  1  0.15903  0.52165  0.15903  1
 O  O9  1  0.73937  0.73937  0.12157  1
 O  O10  1  0.73937  0.12157  0.73937  1
 O  O11  1  0.88190  0.26587  0.26587  1
 O  O12  1  0.52165  0.15903  0.15903  1
 O  O13  1  0.12157  0.73937  0.73937  1
 O  O14  1  0.26587  0.88190  0.26587  1
 P  P1  1  0.31079  0.31079  0.31079  1
 Pb  Pb1  1  0.99866  0.99866  0.99866  1
 S  S1  1  0.69520  0.69520  0.69520  1
