CIF file written using JARVIS-Tools package.
data_Bi2Te3
_symmetry_space_group_name_H-M  'R-3m'
_cell_length_a       10.7133
_cell_length_b       10.7133
_cell_length_c       10.7133
_cell_angle_alpha    23.9767
_cell_angle_beta     23.9767
_cell_angle_gamma    23.9766

_symmetry_Int_Tables_number  166
_chemical_formula_structural  Bi2Te3
_chemical_formula_sum  Bi2Te3
_cell_volume  178.41002886536117
_cell_formula_units_Z  1
loop_
  _symmetry_equiv_pos_site_id
 _symmetry_equiv_pos_as_xyz
 1  'x, y, z'
loop_
 _atom_site_type_symbol
 _atom_site_label
 _atom_site_symmetry_multiplicity
 _atom_site_fract_x
 _atom_site_fract_y
 _atom_site_fract_z
 _atom_site_fract_occupancy
 Bi  Bi1  1  0.39917  0.39917  0.39917  1
 Bi  Bi2  1  0.60083  0.60083  0.60083  1
 Te  Te1  1  0.21198  0.21198  0.21198  1
 Te  Te2  1  0.00000  0.00000  0.00000  1
 Te  Te3  1  0.78802  0.78802  0.78802  1
