CIF file written using JARVIS-Tools package.
data_ErMoClO4
_symmetry_space_group_name_H-M  'C2/m'
_cell_length_a       6.23335
_cell_length_b       6.23336
_cell_length_c       6.81387
_cell_angle_alpha    75.7741
_cell_angle_beta     75.7741
_cell_angle_gamma    70.424

_symmetry_Int_Tables_number  12
_chemical_formula_structural  ErMoClO4
_chemical_formula_sum  Er2Mo2Cl2O8
_cell_volume  237.89652757677453
_cell_formula_units_Z  2
loop_
  _symmetry_equiv_pos_site_id
 _symmetry_equiv_pos_as_xyz
 1  'x, y, z'
loop_
 _atom_site_type_symbol
 _atom_site_label
 _atom_site_symmetry_multiplicity
 _atom_site_fract_x
 _atom_site_fract_y
 _atom_site_fract_z
 _atom_site_fract_occupancy
 Cl  Cl1  1  0.00903  0.00903  0.23698  1
 Cl  Cl2  1  0.99097  0.99097  0.76302  1
 Er  Er1  1  0.22179  0.22179  0.89090  1
 Er  Er2  1  0.77821  0.77821  0.10910  1
 Mo  Mo1  1  0.63747  0.63747  0.73027  1
 Mo  Mo2  1  0.36253  0.36253  0.26973  1
 O  O1  1  0.50922  0.89233  0.84560  1
 O  O2  1  0.49078  0.10767  0.15440  1
 O  O3  1  0.10767  0.49078  0.15440  1
 O  O4  1  0.54371  0.54371  0.19928  1
 O  O5  1  0.29499  0.29499  0.53790  1
 O  O6  1  0.89233  0.50922  0.84560  1
 O  O7  1  0.70501  0.70501  0.46210  1
 O  O8  1  0.45629  0.45629  0.80072  1
