CIF file written using JARVIS-Tools package.
data_VBr2O
_symmetry_space_group_name_H-M  'Immm'
_cell_length_a       3.62163
_cell_length_b       3.65287
_cell_length_c       6.86024
_cell_angle_alpha    105.444
_cell_angle_beta     105.274
_cell_angle_gamma    90.0001

_symmetry_Int_Tables_number  71
_chemical_formula_structural  VBr2O
_chemical_formula_sum  VBr2O
_cell_volume  84.14870448022467
_cell_formula_units_Z  1
loop_
  _symmetry_equiv_pos_site_id
 _symmetry_equiv_pos_as_xyz
 1  'x, y, z'
loop_
 _atom_site_type_symbol
 _atom_site_label
 _atom_site_symmetry_multiplicity
 _atom_site_fract_x
 _atom_site_fract_y
 _atom_site_fract_z
 _atom_site_fract_occupancy
 Br  Br1  1  0.13998  0.64019  0.28035  1
 Br  Br2  1  0.86002  0.35981  0.71965  1
 O  O1  1  0.50000  0.00000  0.00000  1
 V  V1  1  0.00000  0.00000  0.00000  1
