CIF file written using JARVIS-Tools package.
data_TmSeO3F
_symmetry_space_group_name_H-M  'P2_1/c'
_cell_length_a       6.54957
_cell_length_b       6.8326
_cell_length_c       7.07892
_cell_angle_alpha    90
_cell_angle_beta     98.7241
_cell_angle_gamma    90

_symmetry_Int_Tables_number  14
_chemical_formula_structural  TmSeO3F
_chemical_formula_sum  Tm4Se4O2F4
_cell_volume  313.12034306191407
_cell_formula_units_Z  4
loop_
  _symmetry_equiv_pos_site_id
 _symmetry_equiv_pos_as_xyz
 1  'x, y, z'
loop_
 _atom_site_type_symbol
 _atom_site_label
 _atom_site_symmetry_multiplicity
 _atom_site_fract_x
 _atom_site_fract_y
 _atom_site_fract_z
 _atom_site_fract_occupancy
 F  F1  1  0.83377  0.88654  0.47513  1
 F  F2  1  0.83377  0.61346  0.97513  1
 F  F3  1  0.16623  0.11346  0.52487  1
 F  F4  1  0.16623  0.38654  0.02487  1
 O  O1  1  0.17389  0.03354  0.14702  1
 O  O2  1  0.17389  0.46646  0.64702  1
 O  O3  1  0.82611  0.53354  0.35298  1
 O  O4  1  0.82357  0.19307  0.21766  1
 O  O5  1  0.51859  0.81194  0.13638  1
 O  O6  1  0.82357  0.30693  0.71766  1
 O  O7  1  0.17643  0.69307  0.28234  1
 O  O8  1  0.51859  0.68806  0.63638  1
 O  O9  1  0.82611  0.96646  0.85298  1
 O  O10  1  0.48141  0.31194  0.36362  1
 O  O11  1  0.17643  0.80693  0.78234  1
 O  O12  1  0.48141  0.18806  0.86362  1
 Se  Se1  1  0.64344  0.38215  0.20802  1
 Se  Se2  1  0.64344  0.11785  0.70802  1
 Se  Se3  1  0.35656  0.61785  0.79198  1
 Se  Se4  1  0.35656  0.88215  0.29198  1
 Tm  Tm1  1  0.13599  0.35842  0.32486  1
 Tm  Tm2  1  0.86401  0.64158  0.67514  1
 Tm  Tm3  1  0.13599  0.14158  0.82486  1
 Tm  Tm4  1  0.86401  0.85842  0.17514  1
