CIF file written using JARVIS-Tools package.
data_NbI5
_symmetry_space_group_name_H-M  'P2_1/c'
_cell_length_a       10.7205
_cell_length_b       6.44225
_cell_length_c       14.0859
_cell_angle_alpha    90
_cell_angle_beta     109.457
_cell_angle_gamma    90

_symmetry_Int_Tables_number  14
_chemical_formula_structural  NbI5
_chemical_formula_sum  Nb4I20
_cell_volume  917.2827383175241
_cell_formula_units_Z  4
loop_
  _symmetry_equiv_pos_site_id
 _symmetry_equiv_pos_as_xyz
 1  'x, y, z'
loop_
 _atom_site_type_symbol
 _atom_site_label
 _atom_site_symmetry_multiplicity
 _atom_site_fract_x
 _atom_site_fract_y
 _atom_site_fract_z
 _atom_site_fract_occupancy
 I  I1  1  0.10980  0.25152  0.07068  1
 I  I2  1  0.49995  0.75534  0.83545  1
 I  I3  1  0.50005  0.25534  0.66455  1
 I  I4  1  0.50005  0.24466  0.16455  1
 I  I5  1  0.49995  0.74466  0.33545  1
 I  I6  1  0.69391  0.73912  0.63992  1
 I  I7  1  0.30609  0.23912  0.86008  1
 I  I8  1  0.30609  0.26088  0.36008  1
 I  I9  1  0.69058  0.24024  0.45457  1
 I  I10  1  0.69391  0.76088  0.13992  1
 I  I11  1  0.10980  0.24848  0.57068  1
 I  I12  1  0.30942  0.74024  0.04543  1
 I  I13  1  0.89020  0.75152  0.42932  1
 I  I14  1  0.10520  0.73627  0.73432  1
 I  I15  1  0.89480  0.23627  0.76568  1
 I  I16  1  0.89480  0.26373  0.26568  1
 I  I17  1  0.10520  0.76373  0.23432  1
 I  I18  1  0.30942  0.75976  0.54543  1
 I  I19  1  0.69058  0.25976  0.95457  1
 I  I20  1  0.89020  0.74848  0.92932  1
 Nb  Nb1  1  0.71793  0.01250  0.30051  1
 Nb  Nb2  1  0.28207  0.51250  0.19949  1
 Nb  Nb3  1  0.28207  0.98750  0.69949  1
 Nb  Nb4  1  0.71793  0.48750  0.80051  1
