CIF file written using JARVIS-Tools package.
data_Sm2Mo2C3
_symmetry_space_group_name_H-M  'C2/m'
_cell_length_a       3.45954
_cell_length_b       5.8156
_cell_length_c       5.93866
_cell_angle_alpha    105.519
_cell_angle_beta     106.934
_cell_angle_gamma    90

_symmetry_Int_Tables_number  12
_chemical_formula_structural  Sm2Mo2C3
_chemical_formula_sum  Sm2Mo2C3
_cell_volume  109.7399090791393
_cell_formula_units_Z  1
loop_
  _symmetry_equiv_pos_site_id
 _symmetry_equiv_pos_as_xyz
 1  'x, y, z'
loop_
 _atom_site_type_symbol
 _atom_site_label
 _atom_site_symmetry_multiplicity
 _atom_site_fract_x
 _atom_site_fract_y
 _atom_site_fract_z
 _atom_site_fract_occupancy
 C  C1  1  -0.00000  0.50000  0.00000  1
 C  C2  1  0.27525  0.73377  0.55049  1
 C  C3  1  0.72475  0.26623  0.44951  1
 Mo  Mo1  1  0.15239  0.38158  0.30477  1
 Mo  Mo2  1  0.84761  0.61842  0.69523  1
 Sm  Sm1  1  0.38931  0.17518  0.77861  1
 Sm  Sm2  1  0.61069  0.82482  0.22139  1
