CIF file written using JARVIS-Tools package.
data_PrPO4
_symmetry_space_group_name_H-M  'P2_1/c'
_cell_length_a       6.48712
_cell_length_b       7.04271
_cell_length_c       8.24024
_cell_angle_alpha    90
_cell_angle_beta     126.447
_cell_angle_gamma    90

_symmetry_Int_Tables_number  14
_chemical_formula_structural  PrPO4
_chemical_formula_sum  Pr4P4O6
_cell_volume  302.8345701691789
_cell_formula_units_Z  4
loop_
  _symmetry_equiv_pos_site_id
 _symmetry_equiv_pos_as_xyz
 1  'x, y, z'
loop_
 _atom_site_type_symbol
 _atom_site_label
 _atom_site_symmetry_multiplicity
 _atom_site_fract_x
 _atom_site_fract_y
 _atom_site_fract_z
 _atom_site_fract_occupancy
 O  O1  1  0.19349  0.00544  0.75085  1
 O  O2  1  0.41247  0.71233  0.62467  1
 O  O3  1  0.58753  0.21233  0.87533  1
 O  O4  1  0.58753  0.28767  0.37533  1
 O  O5  1  0.11904  0.33235  0.61922  1
 O  O6  1  0.66553  0.60554  0.97279  1
 O  O7  1  0.33447  0.10554  0.52721  1
 O  O8  1  0.41247  0.78767  0.12467  1
 O  O9  1  0.66553  0.89446  0.47279  1
 O  O10  1  0.80651  0.99456  0.24915  1
 O  O11  1  0.19349  0.49456  0.25085  1
 O  O12  1  0.88096  0.83235  0.88078  1
 O  O13  1  0.80651  0.50544  0.74915  1
 O  O14  1  0.88096  0.66765  0.38078  1
 O  O15  1  0.11904  0.16765  0.11922  1
 O  O16  1  0.33447  0.39446  0.02721  1
 P  P1  1  0.68927  0.83763  0.30273  1
 P  P2  1  0.31073  0.33763  0.19727  1
 P  P3  1  0.31073  0.16237  0.69727  1
 P  P4  1  0.68927  0.66237  0.80273  1
 Pr  Pr1  1  0.18062  0.84222  0.28100  1
 Pr  Pr2  1  0.81938  0.34222  0.21900  1
 Pr  Pr3  1  0.81938  0.15778  0.71900  1
 Pr  Pr4  1  0.18062  0.65778  0.78100  1
