CIF file written using JARVIS-Tools package.
data_Li4CaB2O6
_symmetry_space_group_name_H-M  'Pnnm'
_cell_length_a       3.45439
_cell_length_b       8.11431
_cell_length_c       9.26858
_cell_angle_alpha    90
_cell_angle_beta     90
_cell_angle_gamma    90

_symmetry_Int_Tables_number  58
_chemical_formula_structural  Li4CaB2O6
_chemical_formula_sum  Li8Ca2B4O2
_cell_volume  259.7984117573572
_cell_formula_units_Z  2
loop_
  _symmetry_equiv_pos_site_id
 _symmetry_equiv_pos_as_xyz
 1  'x, y, z'
loop_
 _atom_site_type_symbol
 _atom_site_label
 _atom_site_symmetry_multiplicity
 _atom_site_fract_x
 _atom_site_fract_y
 _atom_site_fract_z
 _atom_site_fract_occupancy
 B  B1  1  0.50000  0.77172  0.21021  1
 B  B2  1  0.00000  0.72828  0.71021  1
 B  B3  1  0.50000  0.22828  0.78979  1
 B  B4  1  0.00000  0.27172  0.28979  1
 Ca  Ca1  1  0.50000  0.00000  0.50000  1
 Ca  Ca2  1  0.00000  0.50000  0.00000  1
 Li  Li1  1  0.00000  0.98597  0.80287  1
 Li  Li2  1  0.50000  0.83113  0.95229  1
 Li  Li3  1  0.00000  0.66887  0.45229  1
 Li  Li4  1  0.50000  0.51403  0.30287  1
 Li  Li5  1  0.00000  0.01403  0.19713  1
 Li  Li6  1  0.50000  0.48597  0.69713  1
 Li  Li7  1  0.00000  0.33113  0.54771  1
 Li  Li8  1  0.50000  0.16887  0.04771  1
 O  O1  1  0.00000  0.75275  0.85893  1
 O  O2  1  0.50000  0.92735  0.14928  1
 O  O3  1  0.00000  0.13399  0.37972  1
 O  O4  1  0.00000  0.86601  0.62028  1
 O  O5  1  0.50000  0.25275  0.64107  1
 O  O6  1  0.00000  0.24725  0.14107  1
 O  O7  1  0.50000  0.36601  0.87972  1
 O  O8  1  0.00000  0.57265  0.64928  1
 O  O9  1  0.00000  0.42735  0.35072  1
 O  O10  1  0.50000  0.07265  0.85072  1
 O  O11  1  0.50000  0.74725  0.35893  1
 O  O12  1  0.50000  0.63399  0.12028  1
