CIF file written using JARVIS-Tools package.
data_Na3ScSi2O7
_symmetry_space_group_name_H-M  'Pnma'
_cell_length_a       5.37107
_cell_length_b       9.40191
_cell_length_c       13.1098
_cell_angle_alpha    90
_cell_angle_beta     90
_cell_angle_gamma    90

_symmetry_Int_Tables_number  62
_chemical_formula_structural  Na3ScSi2O7
_chemical_formula_sum  Na2Sc4Si8O28
_cell_volume  662.024562353832
_cell_formula_units_Z  4
loop_
  _symmetry_equiv_pos_site_id
 _symmetry_equiv_pos_as_xyz
 1  'x, y, z'
loop_
 _atom_site_type_symbol
 _atom_site_label
 _atom_site_symmetry_multiplicity
 _atom_site_fract_x
 _atom_site_fract_y
 _atom_site_fract_z
 _atom_site_fract_occupancy
 Na  Na1  1  0.01867  0.34836  0.40372  1
 Na  Na2  1  0.48350  0.52094  0.25000  1
 Na  Na3  1  0.98133  0.65164  0.90372  1
 Na  Na4  1  0.98350  0.97906  0.75000  1
 Na  Na5  1  0.48133  0.84836  0.09628  1
 Na  Na6  1  0.51650  0.47906  0.75000  1
 Na  Na7  1  0.51867  0.15164  0.59628  1
 Na  Na8  1  0.51867  0.15164  0.90372  1
 Na  Na9  1  0.48133  0.84836  0.40372  1
 Na  Na10  1  0.98133  0.65164  0.59628  1
 Na  Na11  1  0.01650  0.02094  0.25000  1
 Na  Na12  1  0.01867  0.34836  0.09628  1
 O  O1  1  0.03029  0.84775  0.37871  1
 O  O2  1  0.53029  0.65225  0.87871  1
 O  O3  1  0.56220  0.87836  0.75000  1
 O  O4  1  0.30172  0.36900  0.89187  1
 O  O5  1  0.80172  0.13100  0.39187  1
 O  O6  1  0.32149  0.09079  0.44318  1
 O  O7  1  0.03029  0.84775  0.12129  1
 O  O8  1  0.53029  0.65225  0.62129  1
 O  O9  1  0.19828  0.86900  0.60813  1
 O  O10  1  0.17851  0.59079  0.44318  1
 O  O11  1  0.30172  0.36900  0.60813  1
 O  O12  1  0.46971  0.34775  0.37871  1
 O  O13  1  0.32149  0.09079  0.05682  1
 O  O14  1  0.43780  0.12164  0.25000  1
 O  O15  1  0.67851  0.90921  0.55682  1
 O  O16  1  0.06220  0.62164  0.25000  1
 O  O17  1  0.46971  0.34775  0.12129  1
 O  O18  1  0.96971  0.15225  0.62129  1
 O  O19  1  0.96971  0.15225  0.87871  1
 O  O20  1  0.93780  0.37836  0.75000  1
 O  O21  1  0.67851  0.90921  0.94318  1
 O  O22  1  0.19828  0.86900  0.89187  1
 O  O23  1  0.80172  0.13100  0.10813  1
 O  O24  1  0.17851  0.59079  0.05682  1
 O  O25  1  0.82149  0.40921  0.55682  1
 O  O26  1  0.69828  0.63100  0.39187  1
 O  O27  1  0.69828  0.63100  0.10813  1
 O  O28  1  0.82149  0.40921  0.94318  1
 Sc  Sc1  1  0.50000  0.50000  0.50000  1
 Sc  Sc2  1  0.00000  0.00000  0.00000  1
 Sc  Sc3  1  0.00000  0.00000  0.50000  1
 Sc  Sc4  1  0.50000  0.50000  0.00000  1
 Si  Si1  1  0.48715  0.82366  0.86866  1
 Si  Si2  1  0.51285  0.17634  0.13134  1
 Si  Si3  1  0.01285  0.32366  0.63134  1
 Si  Si4  1  0.48715  0.82366  0.63134  1
 Si  Si5  1  0.01285  0.32366  0.86866  1
 Si  Si6  1  0.98715  0.67634  0.36866  1
 Si  Si7  1  0.98715  0.67634  0.13134  1
 Si  Si8  1  0.51285  0.17634  0.36866  1
