CIF file written using JARVIS-Tools package.
data_Ca
_symmetry_space_group_name_H-M  'Im-3m'
_cell_length_a       4.33128
_cell_length_b       4.33128
_cell_length_c       17.2074
_cell_angle_alpha    90
_cell_angle_beta     90
_cell_angle_gamma    90

_symmetry_Int_Tables_number  229
_chemical_formula_structural  Ca
_chemical_formula_sum  Ca8
_cell_volume  322.8109521327614
_cell_formula_units_Z  8
loop_
  _symmetry_equiv_pos_site_id
 _symmetry_equiv_pos_as_xyz
 1  'x, y, z'
loop_
 _atom_site_type_symbol
 _atom_site_label
 _atom_site_symmetry_multiplicity
 _atom_site_fract_x
 _atom_site_fract_y
 _atom_site_fract_z
 _atom_site_fract_occupancy
 Ca  Ca1  1  0.50003  0.00008  0.06251  1
 Ca  Ca2  1  0.49992  0.00003  0.31251  1
 Ca  Ca3  1  0.50008  0.99997  0.81251  1
 Ca  Ca4  1  0.00003  0.49992  0.68749  1
 Ca  Ca5  1  0.99997  0.50008  0.18749  1
 Ca  Ca6  1  0.49997  0.99992  0.56251  1
 Ca  Ca7  1  0.00008  0.50003  0.93749  1
 Ca  Ca8  1  0.99992  0.49997  0.43749  1
