CIF file written using JARVIS-Tools package.
data_NaBi2AuO5
_symmetry_space_group_name_H-M  'P4/mbm'
_cell_length_a       12.4713
_cell_length_b       12.4713
_cell_length_c       3.60816
_cell_angle_alpha    90
_cell_angle_beta     90
_cell_angle_gamma    90

_symmetry_Int_Tables_number  127
_chemical_formula_structural  NaBi2AuO5
_chemical_formula_sum  Na4Bi8Au4O20
_cell_volume  561.1873574150918
_cell_formula_units_Z  4
loop_
  _symmetry_equiv_pos_site_id
 _symmetry_equiv_pos_as_xyz
 1  'x, y, z'
loop_
 _atom_site_type_symbol
 _atom_site_label
 _atom_site_symmetry_multiplicity
 _atom_site_fract_x
 _atom_site_fract_y
 _atom_site_fract_z
 _atom_site_fract_occupancy
 Au  Au1  1  0.00000  0.50000  0.50000  1
 Au  Au2  1  0.00000  0.00000  0.50000  1
 Au  Au3  1  0.50000  0.00000  0.50000  1
 Au  Au4  1  0.50000  0.50000  0.50000  1
 Bi  Bi1  1  0.76911  0.95056  -0.00007  1
 Bi  Bi2  1  0.54944  0.73089  0.00007  1
 Bi  Bi3  1  0.95056  0.23089  0.00007  1
 Bi  Bi4  1  0.26911  0.54944  -0.00007  1
 Bi  Bi5  1  0.23089  0.04944  -0.00007  1
 Bi  Bi6  1  0.73089  0.45056  -0.00007  1
 Bi  Bi7  1  0.04944  0.76911  0.00007  1
 Bi  Bi8  1  0.45056  0.26911  0.00007  1
 Na  Na1  1  0.80121  0.69879  0.50000  1
 Na  Na2  1  0.30121  0.80121  0.50000  1
 Na  Na3  1  0.19879  0.30121  0.50000  1
 Na  Na4  1  0.69879  0.19879  0.50000  1
 O  O1  1  0.16110  0.49578  0.49997  1
 O  O2  1  0.33890  0.99578  0.49997  1
 O  O3  1  0.11622  0.88619  0.50001  1
 O  O4  1  0.38378  0.38619  0.50001  1
 O  O5  1  0.99578  0.66110  0.50003  1
 O  O6  1  0.49578  0.83890  0.50003  1
 O  O7  1  0.11381  0.11622  0.49999  1
 O  O8  1  0.83890  0.50422  0.49997  1
 O  O9  1  0.71340  0.78660  0.00000  1
 O  O10  1  0.88378  0.11381  0.50001  1
 O  O11  1  0.50422  0.16110  0.50003  1
 O  O12  1  0.61381  0.38378  0.49999  1
 O  O13  1  0.61622  0.61381  0.50001  1
 O  O14  1  0.38619  0.61622  0.49999  1
 O  O15  1  0.88619  0.88378  0.49999  1
 O  O16  1  0.78660  0.28660  0.00000  1
 O  O17  1  0.66110  0.00422  0.49997  1
 O  O18  1  0.28660  0.21340  0.00000  1
 O  O19  1  0.21340  0.71340  0.00000  1
 O  O20  1  0.00422  0.33890  0.50003  1
