CIF file written using JARVIS-Tools package.
data_WBr4O
_symmetry_space_group_name_H-M  'I4'
_cell_length_a       3.84367
_cell_length_b       6.71138
_cell_length_c       6.71137
_cell_angle_alpha    85.2965
_cell_angle_beta     73.3602
_cell_angle_gamma    73.3602

_symmetry_Int_Tables_number  79
_chemical_formula_structural  WBr4O
_chemical_formula_sum  WBr4O
_cell_volume  158.93242219615576
_cell_formula_units_Z  1
loop_
  _symmetry_equiv_pos_site_id
 _symmetry_equiv_pos_as_xyz
 1  'x, y, z'
loop_
 _atom_site_type_symbol
 _atom_site_label
 _atom_site_symmetry_multiplicity
 _atom_site_fract_x
 _atom_site_fract_y
 _atom_site_fract_z
 _atom_site_fract_occupancy
 Br  Br1  1  0.27014  0.81101  0.66503  1
 Br  Br2  1  0.74618  0.18899  0.33497  1
 Br  Br3  1  0.08115  0.66503  0.18899  1
 Br  Br4  1  0.93517  0.33497  0.81101  1
 O  O1  1  0.52260  0.00000  0.00000  1
 W  W1  1  0.05165  0.00000  0.00000  1
