CIF file written using JARVIS-Tools package.
data_Si3N4
_symmetry_space_group_name_H-M  'Fd-3m'
_cell_length_a       5.51559
_cell_length_b       5.51559
_cell_length_c       5.51559
_cell_angle_alpha    60
_cell_angle_beta     60
_cell_angle_gamma    59.9999

_symmetry_Int_Tables_number  227
_chemical_formula_structural  Si3N4
_chemical_formula_sum  Si6N8
_cell_volume  118.64836824813946
_cell_formula_units_Z  2
loop_
  _symmetry_equiv_pos_site_id
 _symmetry_equiv_pos_as_xyz
 1  'x, y, z'
loop_
 _atom_site_type_symbol
 _atom_site_label
 _atom_site_symmetry_multiplicity
 _atom_site_fract_x
 _atom_site_fract_y
 _atom_site_fract_z
 _atom_site_fract_occupancy
 N  N1  1  0.74256  0.74256  0.74256  1
 N  N2  1  0.25744  0.25744  0.72769  1
 N  N3  1  0.25744  0.72769  0.25744  1
 N  N4  1  0.72769  0.25744  0.25744  1
 N  N5  1  0.74256  0.27231  0.74256  1
 N  N6  1  0.27231  0.74256  0.74256  1
 N  N7  1  0.25744  0.25744  0.25744  1
 N  N8  1  0.74256  0.74256  0.27231  1
 Si  Si1  1  0.50000  0.00000  0.50000  1
 Si  Si2  1  0.00000  0.50000  0.50000  1
 Si  Si3  1  0.50000  0.50000  0.00000  1
 Si  Si4  1  0.50000  0.50000  0.50000  1
 Si  Si5  1  0.12500  0.12500  0.12500  1
 Si  Si6  1  0.87500  0.87500  0.87500  1
