CIF file written using JARVIS-Tools package.
data_CaH4Se2O7
_symmetry_space_group_name_H-M  'P-1'
_cell_length_a       6.72387
_cell_length_b       6.9569
_cell_length_c       7.38644
_cell_angle_alpha    71.5274
_cell_angle_beta     89.0827
_cell_angle_gamma    88.2185

_symmetry_Int_Tables_number  2
_chemical_formula_structural  CaH4Se2O7
_chemical_formula_sum  Ca2H8Se4O4
_cell_volume  327.5498276974327
_cell_formula_units_Z  2
loop_
  _symmetry_equiv_pos_site_id
 _symmetry_equiv_pos_as_xyz
 1  'x, y, z'
loop_
 _atom_site_type_symbol
 _atom_site_label
 _atom_site_symmetry_multiplicity
 _atom_site_fract_x
 _atom_site_fract_y
 _atom_site_fract_z
 _atom_site_fract_occupancy
 Ca  Ca1  1  0.12056  0.77199  0.92510  1
 Ca  Ca2  1  0.87944  0.22801  0.07490  1
 H  H1  1  0.33137  0.43259  0.38869  1
 H  H2  1  0.29351  0.20916  0.52196  1
 H  H3  1  0.70649  0.79084  0.47804  1
 H  H4  1  0.66863  0.56741  0.61131  1
 H  H5  1  0.01089  0.53938  0.65887  1
 H  H6  1  0.46872  0.23815  0.27431  1
 H  H7  1  0.53128  0.76185  0.72569  1
 H  H8  1  0.98911  0.46062  0.34113  1
 O  O1  1  0.46879  0.79476  0.84537  1
 O  O2  1  0.11022  0.65159  0.64541  1
 O  O3  1  0.84883  0.36078  0.71399  1
 O  O4  1  0.15117  0.63922  0.28601  1
 O  O5  1  0.90555  0.91968  0.35149  1
 O  O6  1  0.09445  0.08032  0.64851  1
 O  O7  1  0.53121  0.20524  0.15463  1
 O  O8  1  0.19237  0.41477  0.02457  1
 O  O9  1  0.39914  0.29728  0.44320  1
 O  O10  1  0.21030  0.04083  0.04530  1
 O  O11  1  0.78970  0.95917  0.95470  1
 O  O12  1  0.60086  0.70272  0.55680  1
 O  O13  1  0.88978  0.34841  0.35459  1
 O  O14  1  0.80763  0.58523  0.97543  1
 Se  Se1  1  0.64957  0.74843  0.03571  1
 Se  Se2  1  0.85890  0.18012  0.59860  1
 Se  Se3  1  0.14110  0.81988  0.40140  1
 Se  Se4  1  0.35043  0.25157  0.96429  1
