CIF file written using JARVIS-Tools package.
data_SrNb2O6
_symmetry_space_group_name_H-M  'P2_1/c'
_cell_length_a       7.75922
_cell_length_b       5.64719
_cell_length_c       11.2075
_cell_angle_alpha    90
_cell_angle_beta     90.2589
_cell_angle_gamma    90

_symmetry_Int_Tables_number  14
_chemical_formula_structural  SrNb2O6
_chemical_formula_sum  Sr4Nb8O24
_cell_volume  491.0852838146329
_cell_formula_units_Z  4
loop_
  _symmetry_equiv_pos_site_id
 _symmetry_equiv_pos_as_xyz
 1  'x, y, z'
loop_
 _atom_site_type_symbol
 _atom_site_label
 _atom_site_symmetry_multiplicity
 _atom_site_fract_x
 _atom_site_fract_y
 _atom_site_fract_z
 _atom_site_fract_occupancy
 Nb  Nb1  1  0.00780  0.52707  0.64410  1
 Nb  Nb2  1  0.47974  0.46694  0.35693  1
 Nb  Nb3  1  0.47974  0.03306  0.85693  1
 Nb  Nb4  1  0.52026  0.53306  0.64307  1
 Nb  Nb5  1  0.52026  0.96694  0.14307  1
 Nb  Nb6  1  0.99220  0.47293  0.35590  1
 Nb  Nb7  1  0.99220  0.02707  0.85590  1
 Nb  Nb8  1  0.00780  0.97293  0.14410  1
 O  O1  1  0.55421  0.13811  0.28837  1
 O  O2  1  0.44579  0.63811  0.21163  1
 O  O3  1  0.25150  0.03538  0.14662  1
 O  O4  1  0.74850  0.53538  0.35338  1
 O  O5  1  0.94825  0.36640  0.78907  1
 O  O6  1  0.53578  0.22154  0.02635  1
 O  O7  1  0.75184  0.85122  0.12796  1
 O  O8  1  0.74850  0.96462  0.85338  1
 O  O9  1  0.24816  0.35122  0.37204  1
 O  O10  1  0.24816  0.14878  0.87204  1
 O  O11  1  0.75184  0.64878  0.62796  1
 O  O12  1  0.25150  0.46462  0.64662  1
 O  O13  1  0.44579  0.86189  0.71163  1
 O  O14  1  0.05175  0.86640  0.71093  1
 O  O15  1  0.96389  0.22072  0.02642  1
 O  O16  1  0.03611  0.72072  0.47358  1
 O  O17  1  0.46422  0.72154  0.47365  1
 O  O18  1  0.55421  0.36189  0.78837  1
 O  O19  1  0.53578  0.27846  0.52635  1
 O  O20  1  0.46422  0.77846  0.97365  1
 O  O21  1  0.05175  0.63360  0.21093  1
 O  O22  1  0.94825  0.13360  0.28907  1
 O  O23  1  0.03611  0.77928  0.97358  1
 O  O24  1  0.96389  0.27928  0.52642  1
 Sr  Sr1  1  0.24986  0.03680  0.53928  1
 Sr  Sr2  1  0.75014  0.53680  0.96072  1
 Sr  Sr3  1  0.75014  0.96320  0.46072  1
 Sr  Sr4  1  0.24986  0.46320  0.03928  1
