CIF file written using JARVIS-Tools package.
data_KHg
_symmetry_space_group_name_H-M  'P-1'
_cell_length_a       6.51059
_cell_length_b       6.8975
_cell_length_c       7.05105
_cell_angle_alpha    108.13
_cell_angle_beta     100.994
_cell_angle_gamma    90.9971

_symmetry_Int_Tables_number  2
_chemical_formula_structural  KHg
_chemical_formula_sum  K4Hg4
_cell_volume  294.39642735747594
_cell_formula_units_Z  4
loop_
  _symmetry_equiv_pos_site_id
 _symmetry_equiv_pos_as_xyz
 1  'x, y, z'
loop_
 _atom_site_type_symbol
 _atom_site_label
 _atom_site_symmetry_multiplicity
 _atom_site_fract_x
 _atom_site_fract_y
 _atom_site_fract_z
 _atom_site_fract_occupancy
 Hg  Hg1  1  0.14362  0.71409  0.93599  1
 Hg  Hg2  1  0.85638  0.28591  0.06401  1
 Hg  Hg3  1  0.79064  0.89250  0.69207  1
 Hg  Hg4  1  0.20936  0.10750  0.30793  1
 K  K1  1  0.31377  0.19891  0.85793  1
 K  K2  1  0.68623  0.80109  0.14207  1
 K  K3  1  0.75628  0.34587  0.55546  1
 K  K4  1  0.24372  0.65413  0.44454  1
