CIF file written using JARVIS-Tools package.
data_HfSiO4
_symmetry_space_group_name_H-M  'I4_1/amd'
_cell_length_a       5.55099
_cell_length_b       5.55099
_cell_length_c       5.55099
_cell_angle_alpha    107.115
_cell_angle_beta     107.115
_cell_angle_gamma    114.295

_symmetry_Int_Tables_number  141
_chemical_formula_structural  HfSiO4
_chemical_formula_sum  Hf2Si2O8
_cell_volume  130.96469156770928
_cell_formula_units_Z  2
loop_
  _symmetry_equiv_pos_site_id
 _symmetry_equiv_pos_as_xyz
 1  'x, y, z'
loop_
 _atom_site_type_symbol
 _atom_site_label
 _atom_site_symmetry_multiplicity
 _atom_site_fract_x
 _atom_site_fract_y
 _atom_site_fract_z
 _atom_site_fract_occupancy
 Hf  Hf1  1  0.12500  0.87500  0.25000  1
 Hf  Hf2  1  0.87500  0.12500  0.75000  1
 O  O1  1  0.80620  0.37082  0.06462  1
 O  O2  1  0.74157  0.80620  0.93538  1
 O  O3  1  0.37082  0.80620  0.56462  1
 O  O4  1  0.80620  0.74157  0.43538  1
 O  O5  1  0.25843  0.19380  0.06462  1
 O  O6  1  0.19380  0.62918  0.93538  1
 O  O7  1  0.19380  0.25843  0.56462  1
 O  O8  1  0.62918  0.19380  0.43538  1
 Si  Si1  1  0.37500  0.62500  0.75000  1
 Si  Si2  1  0.62500  0.37500  0.25000  1
