CIF file written using JARVIS-Tools package.
data_KMnSe2O8
_symmetry_space_group_name_H-M  'P-1'
_cell_length_a       4.85606
_cell_length_b       5.01218
_cell_length_c       7.87354
_cell_angle_alpha    82.6343
_cell_angle_beta     84.8871
_cell_angle_gamma    68.8024

_symmetry_Int_Tables_number  2
_chemical_formula_structural  KMnSe2O8
_chemical_formula_sum  KMnSe2O8
_cell_volume  177.0073066945464
_cell_formula_units_Z  1
loop_
  _symmetry_equiv_pos_site_id
 _symmetry_equiv_pos_as_xyz
 1  'x, y, z'
loop_
 _atom_site_type_symbol
 _atom_site_label
 _atom_site_symmetry_multiplicity
 _atom_site_fract_x
 _atom_site_fract_y
 _atom_site_fract_z
 _atom_site_fract_occupancy
 K  K1  1  0.00000  -0.00000  0.50000  1
 Mn  Mn1  1  0.00000  0.00000  0.00000  1
 O  O1  1  0.23659  0.76811  0.18859  1
 O  O2  1  0.23946  0.23446  0.96910  1
 O  O3  1  0.68082  0.69211  0.39389  1
 O  O4  1  0.71883  0.27213  0.19225  1
 O  O5  1  0.76054  0.76554  0.03090  1
 O  O6  1  0.31918  0.30789  0.60611  1
 O  O7  1  0.28117  0.72787  0.80775  1
 O  O8  1  0.76341  0.23189  0.81141  1
 Se  Se1  1  0.61210  0.62437  0.20720  1
 Se  Se2  1  0.38790  0.37563  0.79280  1
