CIF file written using JARVIS-Tools package.
data_KTeF5
_symmetry_space_group_name_H-M  'Pbcm'
_cell_length_a       4.66524
_cell_length_b       9.00953
_cell_length_c       11.4134
_cell_angle_alpha    90
_cell_angle_beta     90
_cell_angle_gamma    90

_symmetry_Int_Tables_number  57
_chemical_formula_structural  KTeF5
_chemical_formula_sum  K4Te4F20
_cell_volume  479.72412676564886
_cell_formula_units_Z  4
loop_
  _symmetry_equiv_pos_site_id
 _symmetry_equiv_pos_as_xyz
 1  'x, y, z'
loop_
 _atom_site_type_symbol
 _atom_site_label
 _atom_site_symmetry_multiplicity
 _atom_site_fract_x
 _atom_site_fract_y
 _atom_site_fract_z
 _atom_site_fract_occupancy
 F  F1  1  0.94151  0.18266  0.12356  1
 F  F2  1  0.62863  0.78399  0.75000  1
 F  F3  1  0.62863  0.71601  0.25000  1
 F  F4  1  0.37137  0.28399  0.75000  1
 F  F5  1  0.37137  0.21601  0.25000  1
 F  F6  1  0.94151  0.18266  0.37644  1
 F  F7  1  0.05849  0.68266  0.37644  1
 F  F8  1  0.05849  0.68266  0.12356  1
 F  F9  1  0.05849  0.81734  0.87644  1
 F  F10  1  0.94151  0.31734  0.62356  1
 F  F11  1  0.38379  0.51519  0.87276  1
 F  F12  1  0.38379  0.51519  0.62724  1
 F  F13  1  0.61621  0.48481  0.37276  1
 F  F14  1  0.05849  0.81734  0.62356  1
 F  F15  1  0.38379  0.98481  0.37276  1
 F  F16  1  0.94151  0.31734  0.87644  1
 F  F17  1  0.61621  0.48481  0.12724  1
 F  F18  1  0.61621  0.01519  0.87276  1
 F  F19  1  0.61621  0.01519  0.62724  1
 F  F20  1  0.38379  0.98481  0.12724  1
 K  K1  1  0.46503  0.25000  0.50000  1
 K  K2  1  0.53497  0.75000  0.00000  1
 K  K3  1  0.53497  0.75000  0.50000  1
 K  K4  1  0.46503  0.25000  0.00000  1
 Te  Te1  1  0.89508  0.94749  0.75000  1
 Te  Te2  1  0.89508  0.55251  0.25000  1
 Te  Te3  1  0.10492  0.44749  0.75000  1
 Te  Te4  1  0.10492  0.05251  0.25000  1
