CIF file written using JARVIS-Tools package.
data_LuSnAu
_symmetry_space_group_name_H-M  'P6_3mc'
_cell_length_a       4.63777
_cell_length_b       4.63777
_cell_length_c       7.3897
_cell_angle_alpha    90
_cell_angle_beta     90
_cell_angle_gamma    120

_symmetry_Int_Tables_number  186
_chemical_formula_structural  LuSnAu
_chemical_formula_sum  Lu2Sn2Au2
_cell_volume  137.64979943103145
_cell_formula_units_Z  2
loop_
  _symmetry_equiv_pos_site_id
 _symmetry_equiv_pos_as_xyz
 1  'x, y, z'
loop_
 _atom_site_type_symbol
 _atom_site_label
 _atom_site_symmetry_multiplicity
 _atom_site_fract_x
 _atom_site_fract_y
 _atom_site_fract_z
 _atom_site_fract_occupancy
 Au  Au1  1  0.66667  0.33333  0.18275  1
 Au  Au2  1  0.33333  0.66667  0.68275  1
 Lu  Lu1  1  0.00000  0.00000  0.52348  1
 Lu  Lu2  1  0.00000  0.00000  0.02348  1
 Sn  Sn1  1  0.33333  0.66667  0.29376  1
 Sn  Sn2  1  0.66667  0.33333  0.79376  1
