CIF file written using JARVIS-Tools package.
data_DyMoClO4
_symmetry_space_group_name_H-M  'C2/m'
_cell_length_a       6.27663
_cell_length_b       6.27663
_cell_length_c       6.84818
_cell_angle_alpha    75.9439
_cell_angle_beta     75.9439
_cell_angle_gamma    70.5426

_symmetry_Int_Tables_number  12
_chemical_formula_structural  DyMoClO4
_chemical_formula_sum  Dy2Mo2Cl2O8
_cell_volume  242.86688033100137
_cell_formula_units_Z  2
loop_
  _symmetry_equiv_pos_site_id
 _symmetry_equiv_pos_as_xyz
 1  'x, y, z'
loop_
 _atom_site_type_symbol
 _atom_site_label
 _atom_site_symmetry_multiplicity
 _atom_site_fract_x
 _atom_site_fract_y
 _atom_site_fract_z
 _atom_site_fract_occupancy
 Cl  Cl1  1  0.00908  0.00908  0.23792  1
 Cl  Cl2  1  0.99092  0.99092  0.76208  1
 Dy  Dy1  1  0.77826  0.77826  0.10897  1
 Dy  Dy2  1  0.22174  0.22174  0.89103  1
 Mo  Mo1  1  0.36250  0.36250  0.26974  1
 Mo  Mo2  1  0.63750  0.63750  0.73026  1
 O  O1  1  0.49017  0.11031  0.15365  1
 O  O2  1  0.11031  0.49017  0.15365  1
 O  O3  1  0.29467  0.29467  0.53617  1
 O  O4  1  0.88969  0.50983  0.84635  1
 O  O5  1  0.70533  0.70533  0.46383  1
 O  O6  1  0.50983  0.88969  0.84635  1
 O  O7  1  0.54222  0.54222  0.20145  1
 O  O8  1  0.45778  0.45778  0.79855  1
