CIF file written using JARVIS-Tools package.
data_MgHg2
_symmetry_space_group_name_H-M  'I4/mmm'
_cell_length_a       3.90208
_cell_length_b       3.90208
_cell_length_c       5.21383
_cell_angle_alpha    111.975
_cell_angle_beta     111.975
_cell_angle_gamma    90

_symmetry_Int_Tables_number  139
_chemical_formula_structural  MgHg2
_chemical_formula_sum  MgHg2
_cell_volume  67.35938248442174
_cell_formula_units_Z  1
loop_
  _symmetry_equiv_pos_site_id
 _symmetry_equiv_pos_as_xyz
 1  'x, y, z'
loop_
 _atom_site_type_symbol
 _atom_site_label
 _atom_site_symmetry_multiplicity
 _atom_site_fract_x
 _atom_site_fract_y
 _atom_site_fract_z
 _atom_site_fract_occupancy
 Hg  Hg1  1  0.66687  0.66687  0.33374  1
 Hg  Hg2  1  0.33313  0.33313  0.66626  1
 Mg  Mg1  1  0.00000  0.00000  0.00000  1
