CIF file written using JARVIS-Tools package.
data_CaSiO3
_symmetry_space_group_name_H-M  'P4/mbm'
_cell_length_a       5.08208
_cell_length_b       5.08208
_cell_length_c       3.61433
_cell_angle_alpha    90
_cell_angle_beta     90
_cell_angle_gamma    90

_symmetry_Int_Tables_number  127
_chemical_formula_structural  CaSiO3
_chemical_formula_sum  Ca2Si2O6
_cell_volume  93.34922236231752
_cell_formula_units_Z  2
loop_
  _symmetry_equiv_pos_site_id
 _symmetry_equiv_pos_as_xyz
 1  'x, y, z'
loop_
 _atom_site_type_symbol
 _atom_site_label
 _atom_site_symmetry_multiplicity
 _atom_site_fract_x
 _atom_site_fract_y
 _atom_site_fract_z
 _atom_site_fract_occupancy
 Ca  Ca1  1  0.50000  0.00000  0.50000  1
 Ca  Ca2  1  0.00000  0.50000  0.50000  1
 O  O1  1  0.76609  0.26609  0.00000  1
 O  O2  1  0.26609  0.23391  0.00000  1
 O  O3  1  0.73391  0.76609  0.00000  1
 O  O4  1  0.23391  0.73391  0.00000  1
 O  O5  1  0.50000  0.50000  0.50000  1
 O  O6  1  0.00000  0.00000  0.50000  1
 Si  Si1  1  0.00000  0.00000  0.00000  1
 Si  Si2  1  0.50000  0.50000  0.00000  1
