CIF file written using JARVIS-Tools package.
data_RbFeF4
_symmetry_space_group_name_H-M  'Pbcm'
_cell_length_a       6.24935
_cell_length_b       7.34875
_cell_length_c       7.39328
_cell_angle_alpha    90
_cell_angle_beta     90
_cell_angle_gamma    90

_symmetry_Int_Tables_number  57
_chemical_formula_structural  RbFeF4
_chemical_formula_sum  Rb4Fe4F6
_cell_volume  339.53583673593147
_cell_formula_units_Z  4
loop_
  _symmetry_equiv_pos_site_id
 _symmetry_equiv_pos_as_xyz
 1  'x, y, z'
loop_
 _atom_site_type_symbol
 _atom_site_label
 _atom_site_symmetry_multiplicity
 _atom_site_fract_x
 _atom_site_fract_y
 _atom_site_fract_z
 _atom_site_fract_occupancy
 F  F1  1  0.91900  0.75000  0.00000  1
 F  F2  1  0.71483  0.04938  0.46157  1
 F  F3  1  0.71483  0.45062  0.53843  1
 F  F4  1  0.28517  0.54938  0.03843  1
 F  F5  1  0.93403  0.48477  0.25000  1
 F  F6  1  0.28517  0.95062  0.53843  1
 F  F7  1  0.28517  0.54938  0.46157  1
 F  F8  1  0.28517  0.95062  0.96157  1
 F  F9  1  0.71483  0.04938  0.03843  1
 F  F10  1  0.08100  0.25000  0.00000  1
 F  F11  1  0.91900  0.75000  0.50000  1
 F  F12  1  0.93403  0.01523  0.75000  1
 F  F13  1  0.08100  0.25000  0.50000  1
 F  F14  1  0.06597  0.98477  0.25000  1
 F  F15  1  0.06597  0.51523  0.75000  1
 F  F16  1  0.71483  0.45062  0.96157  1
 Fe  Fe1  1  0.00000  0.00000  0.50000  1
 Fe  Fe2  1  0.00000  0.50000  0.50000  1
 Fe  Fe3  1  0.00000  0.50000  0.00000  1
 Fe  Fe4  1  0.00000  0.00000  0.00000  1
 Rb  Rb1  1  0.53460  0.72992  0.75000  1
 Rb  Rb2  1  0.53460  0.77008  0.25000  1
 Rb  Rb3  1  0.46540  0.22992  0.75000  1
 Rb  Rb4  1  0.46540  0.27008  0.25000  1
