CIF file written using JARVIS-Tools package.
data_NaZr2CoF11
_symmetry_space_group_name_H-M  'C2/m'
_cell_length_a       5.63584
_cell_length_b       5.63584
_cell_length_c       7.78887
_cell_angle_alpha    69.1324
_cell_angle_beta     69.1325
_cell_angle_gamma    72.8162

_symmetry_Int_Tables_number  12
_chemical_formula_structural  NaZr2CoF11
_chemical_formula_sum  NaZr2CoF
_cell_volume  211.9418345625516
_cell_formula_units_Z  1
loop_
  _symmetry_equiv_pos_site_id
 _symmetry_equiv_pos_as_xyz
 1  'x, y, z'
loop_
 _atom_site_type_symbol
 _atom_site_label
 _atom_site_symmetry_multiplicity
 _atom_site_fract_x
 _atom_site_fract_y
 _atom_site_fract_z
 _atom_site_fract_occupancy
 Co  Co1  1  0.00000  0.00000  0.50000  1
 F  F1  1  0.82058  0.22111  0.68291  1
 F  F2  1  0.77889  0.17942  0.31709  1
 F  F3  1  0.17942  0.77889  0.31709  1
 F  F4  1  0.22111  0.82058  0.68291  1
 F  F5  1  0.50000  0.50000  0.50000  1
 F  F6  1  0.32635  0.67365  0.00000  1
 F  F7  1  0.67365  0.32635  -0.00000  1
 F  F8  1  0.23954  0.23954  0.35020  1
 F  F9  1  0.76046  0.76046  0.64980  1
 F  F10  1  0.26810  0.26810  0.89038  1
 F  F11  1  0.73190  0.73190  0.10962  1
 Na  Na1  1  0.00000  0.00000  0.00000  1
 Zr  Zr1  1  0.50994  0.50994  0.76137  1
 Zr  Zr2  1  0.49006  0.49006  0.23863  1
