CIF file written using JARVIS-Tools package.
data_Li7VN4
_symmetry_space_group_name_H-M  'Pa-3'
_cell_length_a       9.52007
_cell_length_b       9.52007
_cell_length_c       9.52007
_cell_angle_alpha    90
_cell_angle_beta     90
_cell_angle_gamma    90

_symmetry_Int_Tables_number  205
_chemical_formula_structural  Li7VN4
_chemical_formula_sum  Li56V8N32
_cell_volume  862.8209338485641
_cell_formula_units_Z  8
loop_
  _symmetry_equiv_pos_site_id
 _symmetry_equiv_pos_as_xyz
 1  'x, y, z'
loop_
 _atom_site_type_symbol
 _atom_site_label
 _atom_site_symmetry_multiplicity
 _atom_site_fract_x
 _atom_site_fract_y
 _atom_site_fract_z
 _atom_site_fract_occupancy
 Li  Li1  1  0.86493  0.37996  0.39566  1
 Li  Li2  1  0.11617  0.63049  0.13055  1
 Li  Li3  1  0.36493  0.12004  0.60434  1
 Li  Li4  1  0.13507  0.87996  0.10434  1
 Li  Li5  1  0.12004  0.60434  0.36493  1
 Li  Li6  1  0.10434  0.13507  0.87996  1
 Li  Li7  1  0.60434  0.36493  0.12004  1
 Li  Li8  1  0.37996  0.39566  0.86493  1
 Li  Li9  1  0.39566  0.86493  0.37996  1
 Li  Li10  1  0.87996  0.10434  0.13507  1
 Li  Li11  1  0.62004  0.89566  0.63507  1
 Li  Li12  1  0.89566  0.63507  0.62004  1
 Li  Li13  1  0.63507  0.62004  0.89566  1
 Li  Li14  1  0.13507  0.62004  0.60434  1
 Li  Li15  1  0.86493  0.12004  0.89566  1
 Li  Li16  1  0.87996  0.39566  0.63507  1
 Li  Li17  1  0.89566  0.86493  0.12004  1
 Li  Li18  1  0.39566  0.63507  0.87996  1
 Li  Li19  1  0.60434  0.13507  0.62004  1
 Li  Li20  1  0.12004  0.89566  0.86493  1
 Li  Li21  1  0.37996  0.10434  0.36493  1
 Li  Li22  1  0.10434  0.36493  0.37996  1
 Li  Li23  1  0.86951  0.63055  0.11617  1
 Li  Li24  1  0.36493  0.37996  0.10434  1
 Li  Li25  1  0.13055  0.11617  0.63049  1
 Li  Li26  1  0.63507  0.87996  0.39566  1
 Li  Li27  1  0.36945  0.88383  0.13049  1
 Li  Li28  1  0.13270  0.36730  0.63270  1
 Li  Li29  1  0.62004  0.60434  0.13507  1
 Li  Li30  1  0.63049  0.13055  0.11617  1
 Li  Li31  1  0.13049  0.36945  0.88383  1
 Li  Li32  1  0.38383  0.36951  0.63055  1
 Li  Li33  1  0.36951  0.63055  0.38383  1
 Li  Li34  1  0.88383  0.13049  0.36945  1
 Li  Li35  1  0.61617  0.86951  0.86945  1
 Li  Li36  1  0.86945  0.61617  0.86951  1
 Li  Li37  1  0.36945  0.61617  0.63049  1
 Li  Li38  1  0.86945  0.88383  0.36951  1
 Li  Li39  1  0.63055  0.11617  0.86951  1
 Li  Li40  1  0.88383  0.36951  0.86945  1
 Li  Li41  1  0.13270  0.13270  0.13270  1
 Li  Li42  1  0.36730  0.86730  0.63270  1
 Li  Li43  1  0.86951  0.86945  0.61617  1
 Li  Li44  1  0.86730  0.63270  0.36730  1
 Li  Li45  1  0.63270  0.36730  0.86730  1
 Li  Li46  1  0.36951  0.86945  0.88383  1
 Li  Li47  1  0.61617  0.63049  0.36945  1
 Li  Li48  1  0.63055  0.38383  0.36951  1
 Li  Li49  1  0.11617  0.86951  0.63055  1
 Li  Li50  1  0.38383  0.13049  0.13055  1
 Li  Li51  1  0.63049  0.36945  0.61617  1
 Li  Li52  1  0.13055  0.38383  0.13049  1
 Li  Li53  1  0.36730  0.63270  0.13270  1
 Li  Li54  1  0.63270  0.13270  0.36730  1
 Li  Li55  1  0.86730  0.86730  0.86730  1
 Li  Li56  1  0.13049  0.13055  0.38383  1
 N  N1  1  0.75895  0.02045  0.51377  1
 N  N2  1  0.47955  0.48623  0.25895  1
 N  N3  1  0.51377  0.75895  0.02045  1
 N  N4  1  0.01377  0.74105  0.97955  1
 N  N5  1  0.51377  0.74105  0.52045  1
 N  N6  1  0.52045  0.51377  0.74105  1
 N  N7  1  0.74105  0.52045  0.51377  1
 N  N8  1  0.75895  0.47955  0.01377  1
 N  N9  1  0.01377  0.75895  0.47955  1
 N  N10  1  0.25895  0.02045  0.98623  1
 N  N11  1  0.97955  0.48623  0.24105  1
 N  N12  1  0.47955  0.01377  0.75895  1
 N  N13  1  0.24105  0.97955  0.48623  1
 N  N14  1  0.48623  0.24105  0.97955  1
 N  N15  1  0.98623  0.25895  0.02045  1
 N  N16  1  0.75983  0.24017  0.74017  1
 N  N17  1  0.24017  0.74017  0.75983  1
 N  N18  1  0.02045  0.98623  0.25895  1
 N  N19  1  0.74017  0.75983  0.24017  1
 N  N20  1  0.25983  0.25983  0.25983  1
 N  N21  1  0.75983  0.25983  0.24017  1
 N  N22  1  0.98623  0.24105  0.52045  1
 N  N23  1  0.74017  0.74017  0.74017  1
 N  N24  1  0.02045  0.51377  0.75895  1
 N  N25  1  0.74105  0.97955  0.01377  1
 N  N26  1  0.97955  0.01377  0.74105  1
 N  N27  1  0.52045  0.98623  0.24105  1
 N  N28  1  0.25895  0.47955  0.48623  1
 N  N29  1  0.48623  0.25895  0.47955  1
 N  N30  1  0.25983  0.24017  0.75983  1
 N  N31  1  0.24017  0.75983  0.25983  1
 N  N32  1  0.24105  0.52045  0.98623  1
 V  V1  1  0.62944  0.62944  0.62944  1
 V  V2  1  0.12944  0.87056  0.37056  1
 V  V3  1  0.87056  0.37056  0.12944  1
 V  V4  1  0.12944  0.62944  0.87056  1
 V  V5  1  0.62944  0.87056  0.12944  1
 V  V6  1  0.37056  0.37056  0.37056  1
 V  V7  1  0.87056  0.12944  0.62944  1
 V  V8  1  0.37056  0.12944  0.87056  1
