CIF file written using JARVIS-Tools package.
data_Sc6Al16Ir7
_symmetry_space_group_name_H-M  'Fm-3m'
_cell_length_a       8.75132
_cell_length_b       8.75132
_cell_length_c       8.75132
_cell_angle_alpha    60
_cell_angle_beta     60
_cell_angle_gamma    60

_symmetry_Int_Tables_number  225
_chemical_formula_structural  Sc6Al16Ir7
_chemical_formula_sum  Sc6Al6Ir7
_cell_volume  473.92207686390003
_cell_formula_units_Z  1
loop_
  _symmetry_equiv_pos_site_id
 _symmetry_equiv_pos_as_xyz
 1  'x, y, z'
loop_
 _atom_site_type_symbol
 _atom_site_label
 _atom_site_symmetry_multiplicity
 _atom_site_fract_x
 _atom_site_fract_y
 _atom_site_fract_z
 _atom_site_fract_occupancy
 Al  Al1  1  0.66360  0.00919  0.66360  1
 Al  Al2  1  0.99081  0.33640  0.33640  1
 Al  Al3  1  0.33640  0.99081  0.33640  1
 Al  Al4  1  0.66360  0.66360  0.66360  1
 Al  Al5  1  0.66360  0.66360  0.00919  1
 Al  Al6  1  0.00919  0.66360  0.66360  1
 Al  Al7  1  0.11986  0.11986  0.11986  1
 Al  Al8  1  0.11986  0.11986  0.64042  1
 Al  Al9  1  0.64042  0.11986  0.11986  1
 Al  Al10  1  0.33640  0.33640  0.99081  1
 Al  Al11  1  0.11986  0.64042  0.11986  1
 Al  Al12  1  0.88014  0.88014  0.35958  1
 Al  Al13  1  0.88014  0.35958  0.88014  1
 Al  Al14  1  0.35958  0.88014  0.88014  1
 Al  Al15  1  0.88014  0.88014  0.88014  1
 Al  Al16  1  0.33640  0.33640  0.33640  1
 Ir  Ir1  1  0.50000  0.00000  0.50000  1
 Ir  Ir2  1  0.00000  0.00000  0.00000  1
 Ir  Ir3  1  0.50000  0.00000  0.00000  1
 Ir  Ir4  1  0.00000  0.50000  0.50000  1
 Ir  Ir5  1  0.00000  0.50000  0.00000  1
 Ir  Ir6  1  0.50000  0.50000  0.00000  1
 Ir  Ir7  1  0.00000  0.00000  0.50000  1
 Sc  Sc1  1  0.70498  0.70498  0.29502  1
 Sc  Sc2  1  0.70498  0.29502  0.70498  1
 Sc  Sc3  1  0.29502  0.29502  0.70497  1
 Sc  Sc4  1  0.29502  0.70497  0.29502  1
 Sc  Sc5  1  0.29502  0.70498  0.70498  1
 Sc  Sc6  1  0.70497  0.29502  0.29502  1
