CIF file written using JARVIS-Tools package.
data_Ca5As3O12F
_symmetry_space_group_name_H-M  'P-1'
_cell_length_a       7.014
_cell_length_b       9.60571
_cell_length_c       9.72616
_cell_angle_alpha    119.297
_cell_angle_beta     92.3578
_cell_angle_gamma    88.6078

_symmetry_Int_Tables_number  2
_chemical_formula_structural  Ca5As3O12F
_chemical_formula_sum  Ca0As6O24F2
_cell_volume  570.9889014345172
_cell_formula_units_Z  2
loop_
  _symmetry_equiv_pos_site_id
 _symmetry_equiv_pos_as_xyz
 1  'x, y, z'
loop_
 _atom_site_type_symbol
 _atom_site_label
 _atom_site_symmetry_multiplicity
 _atom_site_fract_x
 _atom_site_fract_y
 _atom_site_fract_z
 _atom_site_fract_occupancy
 As  As1  1  0.23348  0.02557  0.39539  1
 As  As2  1  0.23528  0.61273  0.62955  1
 As  As3  1  0.72155  0.62747  0.02450  1
 As  As4  1  0.76652  0.97443  0.60461  1
 As  As5  1  0.76472  0.38727  0.37045  1
 As  As6  1  0.27845  0.37253  0.97550  1
 Ca  Ca1  1  0.99538  0.35828  0.70392  1
 Ca  Ca2  1  0.22972  0.77461  0.00628  1
 Ca  Ca3  1  0.25895  0.99104  0.75593  1
 Ca  Ca4  1  0.50139  0.30958  0.65428  1
 Ca  Ca5  1  0.49861  0.69042  0.34572  1
 Ca  Ca6  1  0.73044  0.74816  0.75114  1
 Ca  Ca7  1  0.26956  0.25184  0.24886  1
 Ca  Ca8  1  0.77028  0.22539  -0.00628  1
 Ca  Ca9  1  0.00462  0.64172  0.29608  1
 Ca  Ca10  1  0.74105  0.00896  0.24407  1
 F  F1  1  0.75668  0.97847  0.99214  1
 F  F2  1  0.24332  0.02153  0.00786  1
 O  O1  1  0.20034  0.12419  0.59627  1
 O  O2  1  0.96521  0.37185  0.26623  1
 O  O3  1  0.07035  0.07480  0.29045  1
 O  O4  1  0.93725  0.72395  0.08485  1
 O  O5  1  0.55156  0.90162  0.62253  1
 O  O6  1  0.60179  0.26945  0.22437  1
 O  O7  1  0.28830  0.47964  0.17787  1
 O  O8  1  0.75861  0.17775  0.69198  1
 O  O9  1  0.03479  0.62815  0.73377  1
 O  O10  1  0.92965  0.92520  0.70955  1
 O  O11  1  0.21802  0.69190  0.50555  1
 O  O12  1  0.06275  0.27605  0.91515  1
 O  O13  1  0.71170  0.52036  0.82213  1
 O  O14  1  0.39821  0.73055  0.77563  1
 O  O15  1  0.79966  0.87581  0.40373  1
 O  O16  1  0.54747  0.77147  0.10371  1
 O  O17  1  0.29303  0.41285  0.53113  1
 O  O18  1  0.45253  0.22853  0.89629  1
 O  O19  1  0.24139  0.82225  0.30802  1
 O  O20  1  0.70697  0.58715  0.46887  1
 O  O21  1  0.44844  0.09838  0.37747  1
 O  O22  1  0.28589  0.48399  0.88009  1
 O  O23  1  0.78198  0.30810  0.49445  1
 O  O24  1  0.71411  0.51601  0.11991  1
