CIF file written using JARVIS-Tools package.
data_SmB2Os2
_symmetry_space_group_name_H-M  'Fddd'
_cell_length_a       5.64158
_cell_length_b       5.64158
_cell_length_c       5.98923
_cell_angle_alpha    109.304
_cell_angle_beta     109.304
_cell_angle_gamma    107.344

_symmetry_Int_Tables_number  70
_chemical_formula_structural  SmB2Os2
_chemical_formula_sum  Sm2B4Os4
_cell_volume  150.99071326379706
_cell_formula_units_Z  2
loop_
  _symmetry_equiv_pos_site_id
 _symmetry_equiv_pos_as_xyz
 1  'x, y, z'
loop_
 _atom_site_type_symbol
 _atom_site_label
 _atom_site_symmetry_multiplicity
 _atom_site_fract_x
 _atom_site_fract_y
 _atom_site_fract_z
 _atom_site_fract_occupancy
 B  B1  1  0.68777  0.31223  0.00000  1
 B  B2  1  0.31223  0.68777  0.00000  1
 B  B3  1  0.93778  0.06222  0.50000  1
 B  B4  1  0.56222  0.43778  0.50000  1
 Os  Os1  1  0.61172  0.11172  0.22344  1
 Os  Os2  1  0.63828  0.63828  0.27656  1
 Os  Os3  1  0.36172  0.36172  0.72344  1
 Os  Os4  1  0.88828  0.38828  0.77656  1
 Sm  Sm1  1  0.00000  0.00000  0.00000  1
 Sm  Sm2  1  0.25000  0.75000  0.50000  1
