CIF file written using JARVIS-Tools package.
data_Sr4RhO6
_symmetry_space_group_name_H-M  'R-3c'
_cell_length_a       6.88947
_cell_length_b       6.88947
_cell_length_c       6.88947
_cell_angle_alpha    89.9999
_cell_angle_beta     89.9999
_cell_angle_gamma    89.9999

_symmetry_Int_Tables_number  167
_chemical_formula_structural  Sr4RhO6
_chemical_formula_sum  Sr8Rh2O2
_cell_volume  327.00791289348854
_cell_formula_units_Z  2
loop_
  _symmetry_equiv_pos_site_id
 _symmetry_equiv_pos_as_xyz
 1  'x, y, z'
loop_
 _atom_site_type_symbol
 _atom_site_label
 _atom_site_symmetry_multiplicity
 _atom_site_fract_x
 _atom_site_fract_y
 _atom_site_fract_z
 _atom_site_fract_occupancy
 O  O1  1  0.05855  0.92677  0.71520  1
 O  O2  1  0.21520  0.42677  0.55855  1
 O  O3  1  0.78480  0.57323  0.44145  1
 O  O4  1  0.28480  0.94145  0.07323  1
 O  O5  1  0.42677  0.55855  0.21520  1
 O  O6  1  0.57323  0.44145  0.78480  1
 O  O7  1  0.71520  0.05855  0.92677  1
 O  O8  1  0.44145  0.78480  0.57323  1
 O  O9  1  0.92677  0.71520  0.05855  1
 O  O10  1  0.94145  0.07323  0.28480  1
 O  O11  1  0.07323  0.28480  0.94145  1
 O  O12  1  0.55855  0.21520  0.42677  1
 Rh  Rh1  1  0.50000  0.50000  0.50000  1
 Rh  Rh2  1  0.00000  0.00000  0.00000  1
 Sr  Sr1  1  0.11783  0.75000  0.38217  1
 Sr  Sr2  1  0.25000  0.25000  0.25000  1
 Sr  Sr3  1  0.75000  0.38217  0.11783  1
 Sr  Sr4  1  0.75000  0.75000  0.75000  1
 Sr  Sr5  1  0.25000  0.61783  0.88217  1
 Sr  Sr6  1  0.88217  0.25000  0.61783  1
 Sr  Sr7  1  0.38217  0.11783  0.75000  1
 Sr  Sr8  1  0.61783  0.88217  0.25000  1
