CIF file written using JARVIS-Tools package.
data_NiB2O4
_symmetry_space_group_name_H-M  'C2/c'
_cell_length_a       4.44154
_cell_length_b       5.41958
_cell_length_c       5.41958
_cell_angle_alpha    61.4682
_cell_angle_beta     74.2931
_cell_angle_gamma    74.293

_symmetry_Int_Tables_number  15
_chemical_formula_structural  NiB2O4
_chemical_formula_sum  Ni2B4O8
_cell_volume  108.77946648908281
_cell_formula_units_Z  2
loop_
  _symmetry_equiv_pos_site_id
 _symmetry_equiv_pos_as_xyz
 1  'x, y, z'
loop_
 _atom_site_type_symbol
 _atom_site_label
 _atom_site_symmetry_multiplicity
 _atom_site_fract_x
 _atom_site_fract_y
 _atom_site_fract_z
 _atom_site_fract_occupancy
 B  B1  1  0.86859  0.70895  0.92384  1
 B  B2  1  0.63141  0.07616  0.29105  1
 B  B3  1  0.13141  0.29105  0.07616  1
 B  B4  1  0.36859  0.92384  0.70895  1
 Ni  Ni1  1  0.25000  0.64808  0.35192  1
 Ni  Ni2  1  0.75000  0.35192  0.64808  1
 O  O1  1  0.98210  0.50446  0.20534  1
 O  O2  1  0.01790  0.49554  0.79466  1
 O  O3  1  0.47338  0.22760  0.04491  1
 O  O4  1  0.51790  0.79466  0.49554  1
 O  O5  1  0.02662  0.95509  0.77240  1
 O  O6  1  0.97338  0.04491  0.22760  1
 O  O7  1  0.48210  0.20534  0.50446  1
 O  O8  1  0.52662  0.77240  0.95509  1
