CIF file written using JARVIS-Tools package.
data_Ca2SnS4
_symmetry_space_group_name_H-M  'Pbam'
_cell_length_a       7.09482
_cell_length_b       7.94638
_cell_length_c       11.3898
_cell_angle_alpha    90
_cell_angle_beta     90
_cell_angle_gamma    90

_symmetry_Int_Tables_number  55
_chemical_formula_structural  Ca2SnS4
_chemical_formula_sum  Ca8Sn4S6
_cell_volume  642.1359443904264
_cell_formula_units_Z  4
loop_
  _symmetry_equiv_pos_site_id
 _symmetry_equiv_pos_as_xyz
 1  'x, y, z'
loop_
 _atom_site_type_symbol
 _atom_site_label
 _atom_site_symmetry_multiplicity
 _atom_site_fract_x
 _atom_site_fract_y
 _atom_site_fract_z
 _atom_site_fract_occupancy
 Ca  Ca1  1  0.09431  -0.00002  0.68444  1
 Ca  Ca2  1  0.40569  0.50002  0.18444  1
 Ca  Ca3  1  0.90569  0.49998  0.31556  1
 Ca  Ca4  1  0.59431  0.00002  0.81556  1
 Ca  Ca5  1  0.90569  0.00002  0.31556  1
 Ca  Ca6  1  0.59431  0.49998  0.81556  1
 Ca  Ca7  1  0.09431  0.50002  0.68444  1
 Ca  Ca8  1  0.40569  -0.00002  0.18444  1
 S  S1  1  0.62594  0.75000  0.29414  1
 S  S2  1  0.37410  0.75000  0.70588  1
 S  S3  1  0.12590  0.75000  0.20588  1
 S  S4  1  0.87406  0.75000  0.79414  1
 S  S5  1  0.12594  0.25000  0.20586  1
 S  S6  1  0.23827  0.50000  0.94834  1
 S  S7  1  0.62590  0.25000  0.29412  1
 S  S8  1  0.37406  0.25000  0.70586  1
 S  S9  1  0.23827  -0.00000  0.94834  1
 S  S10  1  0.76173  0.00000  0.05166  1
 S  S11  1  0.76173  0.50000  0.05166  1
 S  S12  1  0.73827  0.00000  0.55166  1
 S  S13  1  0.87410  0.25000  0.79412  1
 S  S14  1  0.73827  0.50000  0.55166  1
 S  S15  1  0.26173  0.50000  0.44834  1
 S  S16  1  0.26173  -0.00000  0.44834  1
 Sn  Sn1  1  -0.00003  0.75000  0.00001  1
 Sn  Sn2  1  0.50003  0.75000  0.50001  1
 Sn  Sn3  1  0.00003  0.25000  -0.00001  1
 Sn  Sn4  1  0.49997  0.25000  0.49999  1
