CIF file written using JARVIS-Tools package.
data_CrBrO
_symmetry_space_group_name_H-M  'Pmmn'
_cell_length_a       3.30234
_cell_length_b       3.86173
_cell_length_c       8.25805
_cell_angle_alpha    90
_cell_angle_beta     90
_cell_angle_gamma    90

_symmetry_Int_Tables_number  59
_chemical_formula_structural  CrBrO
_chemical_formula_sum  Cr2Br2O2
_cell_volume  105.3128770476727
_cell_formula_units_Z  2
loop_
  _symmetry_equiv_pos_site_id
 _symmetry_equiv_pos_as_xyz
 1  'x, y, z'
loop_
 _atom_site_type_symbol
 _atom_site_label
 _atom_site_symmetry_multiplicity
 _atom_site_fract_x
 _atom_site_fract_y
 _atom_site_fract_z
 _atom_site_fract_occupancy
 Br  Br1  1  0.00000  0.50000  0.17513  1
 Br  Br2  1  0.50000  0.00000  0.82487  1
 Cr  Cr1  1  0.00000  0.00000  0.60160  1
 Cr  Cr2  1  0.50000  0.50000  0.39840  1
 O  O1  1  0.50000  0.00000  0.45206  1
 O  O2  1  0.00000  0.50000  0.54794  1
