CIF file written using JARVIS-Tools package.
data_TbBaMn2O6
_symmetry_space_group_name_H-M  'Cmmm'
_cell_length_a       5.51343
_cell_length_b       5.51343
_cell_length_c       7.69639
_cell_angle_alpha    90
_cell_angle_beta     90
_cell_angle_gamma    88.9497

_symmetry_Int_Tables_number  65
_chemical_formula_structural  TbBaMn2O6
_chemical_formula_sum  Tb2Ba2Mn4O2
_cell_volume  233.91521975169016
_cell_formula_units_Z  2
loop_
  _symmetry_equiv_pos_site_id
 _symmetry_equiv_pos_as_xyz
 1  'x, y, z'
loop_
 _atom_site_type_symbol
 _atom_site_label
 _atom_site_symmetry_multiplicity
 _atom_site_fract_x
 _atom_site_fract_y
 _atom_site_fract_z
 _atom_site_fract_occupancy
 Ba  Ba1  1  0.24711  0.24711  0.00000  1
 Ba  Ba2  1  0.75289  0.75289  0.00000  1
 Mn  Mn1  1  0.74958  0.25042  0.25842  1
 Mn  Mn2  1  0.25042  0.74958  0.25842  1
 Mn  Mn3  1  0.25042  0.74958  0.74158  1
 Mn  Mn4  1  0.74958  0.25042  0.74158  1
 O  O1  1  0.50000  0.00000  0.71537  1
 O  O2  1  0.50000  0.00000  0.28463  1
 O  O3  1  0.00000  0.00000  0.23965  1
 O  O4  1  0.19395  0.80605  0.50000  1
 O  O5  1  0.50000  0.50000  0.31049  1
 O  O6  1  0.26966  0.73034  0.00000  1
 O  O7  1  0.00000  0.50000  0.71537  1
 O  O8  1  0.50000  0.50000  0.68951  1
 O  O9  1  0.00000  0.00000  0.76035  1
 O  O10  1  0.80605  0.19395  0.50000  1
 O  O11  1  0.73034  0.26966  0.00000  1
 O  O12  1  0.00000  0.50000  0.28463  1
 Tb  Tb1  1  0.76254  0.76254  0.50000  1
 Tb  Tb2  1  0.23746  0.23746  0.50000  1
