CIF file written using JARVIS-Tools package.
data_Hf3Zn3N
_symmetry_space_group_name_H-M  'Fd-3m'
_cell_length_a       8.49545
_cell_length_b       8.49545
_cell_length_c       8.49545
_cell_angle_alpha    60
_cell_angle_beta     60
_cell_angle_gamma    60

_symmetry_Int_Tables_number  227
_chemical_formula_structural  Hf3Zn3N
_chemical_formula_sum  Hf2Zn2N4
_cell_volume  433.55529686874485
_cell_formula_units_Z  4
loop_
  _symmetry_equiv_pos_site_id
 _symmetry_equiv_pos_as_xyz
 1  'x, y, z'
loop_
 _atom_site_type_symbol
 _atom_site_label
 _atom_site_symmetry_multiplicity
 _atom_site_fract_x
 _atom_site_fract_y
 _atom_site_fract_z
 _atom_site_fract_occupancy
 Hf  Hf1  1  0.56522  0.93478  0.93478  1
 Hf  Hf2  1  0.31522  0.68478  0.31522  1
 Hf  Hf3  1  0.31522  0.31522  0.68478  1
 Hf  Hf4  1  0.31522  0.68478  0.68478  1
 Hf  Hf5  1  0.68478  0.68478  0.31522  1
 Hf  Hf6  1  0.68478  0.31522  0.31522  1
 Hf  Hf7  1  0.68478  0.31522  0.68478  1
 Hf  Hf8  1  0.93478  0.93478  0.56522  1
 Hf  Hf9  1  0.93478  0.56522  0.56522  1
 Hf  Hf10  1  0.56522  0.93478  0.56522  1
 Hf  Hf11  1  0.56522  0.56522  0.93478  1
 Hf  Hf12  1  0.93478  0.56522  0.93478  1
 N  N1  1  0.12500  0.62500  0.62500  1
 N  N2  1  0.62500  0.12500  0.62500  1
 N  N3  1  0.62500  0.62500  0.62500  1
 N  N4  1  0.62500  0.62500  0.12500  1
 Zn  Zn1  1  0.12500  0.12500  0.62500  1
 Zn  Zn2  1  0.62500  0.12500  0.12500  1
 Zn  Zn3  1  0.91713  0.24861  0.91713  1
 Zn  Zn4  1  0.33287  0.33287  0.00139  1
 Zn  Zn5  1  0.24861  0.91713  0.91713  1
 Zn  Zn6  1  0.33287  0.33287  0.33287  1
 Zn  Zn7  1  0.33287  0.00139  0.33287  1
 Zn  Zn8  1  0.00139  0.33287  0.33287  1
 Zn  Zn9  1  0.91713  0.91713  0.24861  1
 Zn  Zn10  1  0.91713  0.91713  0.91713  1
 Zn  Zn11  1  0.12500  0.62500  0.12500  1
 Zn  Zn12  1  0.12500  0.12500  0.12500  1
