CIF file written using JARVIS-Tools package.
data_K2Be2Si3O9
_symmetry_space_group_name_H-M  'P2_1/c'
_cell_length_a       10.2622
_cell_length_b       6.95385
_cell_length_c       12.2107
_cell_angle_alpha    90
_cell_angle_beta     107.016
_cell_angle_gamma    90

_symmetry_Int_Tables_number  14
_chemical_formula_structural  K2Be2Si3O9
_chemical_formula_sum  K8Be8Si2O36
_cell_volume  833.2311192017289
_cell_formula_units_Z  4
loop_
  _symmetry_equiv_pos_site_id
 _symmetry_equiv_pos_as_xyz
 1  'x, y, z'
loop_
 _atom_site_type_symbol
 _atom_site_label
 _atom_site_symmetry_multiplicity
 _atom_site_fract_x
 _atom_site_fract_y
 _atom_site_fract_z
 _atom_site_fract_occupancy
 Be  Be1  1  0.93766  0.57305  0.55837  1
 Be  Be2  1  0.43153  0.09142  0.04368  1
 Be  Be3  1  0.06234  0.07305  0.94163  1
 Be  Be4  1  0.93766  0.92695  0.05837  1
 Be  Be5  1  0.56847  0.59142  0.45632  1
 Be  Be6  1  0.06234  0.42695  0.44163  1
 Be  Be7  1  0.43153  0.40858  0.54368  1
 Be  Be8  1  0.56847  0.90858  0.95632  1
 K  K1  1  0.53997  0.37224  0.85677  1
 K  K2  1  0.93795  0.89043  0.35322  1
 K  K3  1  0.06205  0.39043  0.14678  1
 K  K4  1  0.53997  0.12776  0.35677  1
 K  K5  1  0.46003  0.62776  0.14323  1
 K  K6  1  0.46003  0.87224  0.64323  1
 K  K7  1  0.06205  0.10957  0.64678  1
 K  K8  1  0.93795  0.60957  0.85322  1
 O  O1  1  0.37995  0.19666  0.50291  1
 O  O2  1  0.62005  0.80334  0.49709  1
 O  O3  1  0.38020  0.00600  0.14573  1
 O  O4  1  0.37995  0.30334  0.00291  1
 O  O5  1  0.12262  0.95194  0.85705  1
 O  O6  1  0.39924  0.57049  0.43367  1
 O  O7  1  0.10045  0.29844  0.93992  1
 O  O8  1  0.76303  0.87377  0.71692  1
 O  O9  1  0.76086  0.12360  0.55514  1
 O  O10  1  0.89955  0.70156  0.06008  1
 O  O11  1  0.25795  0.74774  0.74308  1
 O  O12  1  0.23697  0.37377  0.78308  1
 O  O13  1  0.62005  0.69666  0.99709  1
 O  O14  1  0.23697  0.12623  0.28308  1
 O  O15  1  0.10300  0.98105  0.07697  1
 O  O16  1  0.12262  0.54806  0.35705  1
 O  O17  1  0.23914  0.87640  0.44486  1
 O  O18  1  0.89700  0.01895  0.92303  1
 O  O19  1  0.61980  0.50600  0.35427  1
 O  O20  1  0.89700  0.48105  0.42303  1
 O  O21  1  0.74205  0.25226  0.25692  1
 O  O22  1  0.87738  0.45194  0.64295  1
 O  O23  1  0.74205  0.24774  0.75692  1
 O  O24  1  0.89955  0.79844  0.56008  1
 O  O25  1  0.76086  0.37640  0.05514  1
 O  O26  1  0.10300  0.51895  0.57697  1
 O  O27  1  0.10045  0.20156  0.43992  1
 O  O28  1  0.23914  0.62360  0.94486  1
 O  O29  1  0.60076  0.42951  0.56633  1
 O  O30  1  0.61980  0.99400  0.85427  1
 O  O31  1  0.76303  0.62623  0.21692  1
 O  O32  1  0.39924  0.92951  0.93367  1
 O  O33  1  0.60076  0.07049  0.06633  1
 O  O34  1  0.38020  0.49400  0.64573  1
 O  O35  1  0.25795  0.75226  0.24308  1
 O  O36  1  0.87738  0.04806  0.14295  1
 Si  Si1  1  0.24375  0.53162  0.68180  1
 Si  Si2  1  0.75625  0.46838  0.31820  1
 Si  Si3  1  0.25530  0.67901  0.37238  1
 Si  Si4  1  0.75625  0.03162  0.81820  1
 Si  Si5  1  0.25530  0.82099  0.87238  1
 Si  Si6  1  0.24375  0.96838  0.18180  1
 Si  Si7  1  0.76176  0.61359  0.07931  1
 Si  Si8  1  0.23824  0.11359  0.42069  1
 Si  Si9  1  0.76176  0.88641  0.57931  1
 Si  Si10  1  0.74470  0.17901  0.12762  1
 Si  Si11  1  0.23824  0.38641  0.92069  1
 Si  Si12  1  0.74470  0.32099  0.62762  1
