CIF file written using JARVIS-Tools package.
data_Ni2P2O7
_symmetry_space_group_name_H-M  'P2_1/c'
_cell_length_a       4.47781
_cell_length_b       9.917
_cell_length_c       5.23407
_cell_angle_alpha    90
_cell_angle_beta     97.2933
_cell_angle_gamma    90

_symmetry_Int_Tables_number  14
_chemical_formula_structural  Ni2P2O7
_chemical_formula_sum  Ni4P4O4
_cell_volume  230.54545600040984
_cell_formula_units_Z  2
loop_
  _symmetry_equiv_pos_site_id
 _symmetry_equiv_pos_as_xyz
 1  'x, y, z'
loop_
 _atom_site_type_symbol
 _atom_site_label
 _atom_site_symmetry_multiplicity
 _atom_site_fract_x
 _atom_site_fract_y
 _atom_site_fract_z
 _atom_site_fract_occupancy
 Ni  Ni1  1  0.09835  0.34312  0.42012  1
 Ni  Ni2  1  0.90165  0.65688  0.57988  1
 Ni  Ni3  1  0.90165  0.84312  0.07988  1
 Ni  Ni4  1  0.09835  0.15688  0.92012  1
 O  O1  1  0.88517  0.32186  0.03767  1
 O  O2  1  0.61577  0.70642  0.26025  1
 O  O3  1  0.78553  0.04235  0.12478  1
 O  O4  1  0.21447  0.95765  0.87522  1
 O  O5  1  0.11483  0.67814  0.96233  1
 O  O6  1  0.21447  0.54235  0.37522  1
 O  O7  1  0.38423  0.20642  0.23975  1
 O  O8  1  0.88517  0.17814  0.53767  1
 O  O9  1  0.11483  0.82186  0.46233  1
 O  O10  1  0.61577  0.79358  0.76025  1
 O  O11  1  0.78553  0.45765  0.62478  1
 O  O12  1  0.50000  0.50000  -0.00000  1
 O  O13  1  0.50000  0.00000  0.50000  1
 O  O14  1  0.38423  0.29358  0.73975  1
 P  P1  1  0.35626  0.61206  0.15727  1
 P  P2  1  0.64374  0.11206  0.34273  1
 P  P3  1  0.35626  0.88794  0.65727  1
 P  P4  1  0.64374  0.38794  0.84273  1
