CIF file written using JARVIS-Tools package.
data_Mn3P2O8
_symmetry_space_group_name_H-M  'P2_1/c'
_cell_length_a       5.27266
_cell_length_b       6.69062
_cell_length_c       9.94208
_cell_angle_alpha    90
_cell_angle_beta     116.287
_cell_angle_gamma    90

_symmetry_Int_Tables_number  14
_chemical_formula_structural  Mn3P2O8
_chemical_formula_sum  Mn6P4O6
_cell_volume  314.4611501860097
_cell_formula_units_Z  2
loop_
  _symmetry_equiv_pos_site_id
 _symmetry_equiv_pos_as_xyz
 1  'x, y, z'
loop_
 _atom_site_type_symbol
 _atom_site_label
 _atom_site_symmetry_multiplicity
 _atom_site_fract_x
 _atom_site_fract_y
 _atom_site_fract_z
 _atom_site_fract_occupancy
 Mn  Mn1  1  0.78198  0.65427  0.87452  1
 Mn  Mn2  1  0.21802  0.34573  0.12548  1
 Mn  Mn3  1  0.78198  0.84573  0.37452  1
 Mn  Mn4  1  0.50000  0.50000  0.50000  1
 Mn  Mn5  1  0.21802  0.15427  0.62548  1
 Mn  Mn6  1  0.50000  0.00000  -0.00000  1
 O  O1  1  0.85660  0.87437  0.18421  1
 O  O2  1  0.85660  0.62563  0.68421  1
 O  O3  1  0.13119  0.84277  0.58910  1
 O  O4  1  0.62982  0.29449  0.14083  1
 O  O5  1  0.37018  0.70551  0.85917  1
 O  O6  1  0.86881  0.34277  0.91090  1
 O  O7  1  0.26269  0.48173  0.63667  1
 O  O8  1  0.14340  0.37437  0.31579  1
 O  O9  1  0.62982  0.20551  0.64083  1
 O  O10  1  0.26269  0.01827  0.13667  1
 O  O11  1  0.73731  0.51827  0.36333  1
 O  O12  1  0.14340  0.12563  0.81579  1
 O  O13  1  0.73731  0.98173  0.86333  1
 O  O14  1  0.13119  0.65723  0.08910  1
 O  O15  1  0.37018  0.79449  0.35917  1
 O  O16  1  0.86881  0.15723  0.41090  1
 P  P1  1  0.15636  0.66374  0.69420  1
 P  P2  1  0.15636  0.83626  0.19420  1
 P  P3  1  0.84364  0.16374  0.80580  1
 P  P4  1  0.84364  0.33626  0.30580  1
