CIF file written using JARVIS-Tools package.
data_Sn7Ir5
_symmetry_space_group_name_H-M  'I4mm'
_cell_length_a       6.56159
_cell_length_b       6.96429
_cell_length_c       6.96429
_cell_angle_alpha    77.1779
_cell_angle_beta     61.895
_cell_angle_gamma    61.895

_symmetry_Int_Tables_number  107
_chemical_formula_structural  Sn7Ir5
_chemical_formula_sum  Sn7Ir5
_cell_volume  247.61916331181246
_cell_formula_units_Z  1
loop_
  _symmetry_equiv_pos_site_id
 _symmetry_equiv_pos_as_xyz
 1  'x, y, z'
loop_
 _atom_site_type_symbol
 _atom_site_label
 _atom_site_symmetry_multiplicity
 _atom_site_fract_x
 _atom_site_fract_y
 _atom_site_fract_z
 _atom_site_fract_occupancy
 Ir  Ir1  1  0.93323  0.24390  0.24390  1
 Ir  Ir2  1  0.17713  0.75610  0.24390  1
 Ir  Ir3  1  0.17713  0.24390  0.75610  1
 Ir  Ir4  1  0.42103  0.75610  0.75610  1
 Ir  Ir5  1  0.50232  0.00000  -0.00000  1
 Sn  Sn1  1  0.72540  -0.00000  0.57087  1
 Sn  Sn2  1  0.29627  0.42913  0.00000  1
 Sn  Sn3  1  0.72540  0.57087  -0.00000  1
 Sn  Sn4  1  0.29627  0.00000  0.42913  1
 Sn  Sn5  1  0.41465  0.50000  0.50000  1
 Sn  Sn6  1  0.90252  0.00000  -0.00000  1
 Sn  Sn7  1  0.91465  0.50000  0.50000  1
