CIF file written using JARVIS-Tools package.
data_Ce2Mo2C3
_symmetry_space_group_name_H-M  'C2/m'
_cell_length_a       3.36237
_cell_length_b       5.77111
_cell_length_c       6.27528
_cell_angle_alpha    113.483
_cell_angle_beta     105.54
_cell_angle_gamma    90

_symmetry_Int_Tables_number  12
_chemical_formula_structural  Ce2Mo2C3
_chemical_formula_sum  Ce2Mo2C3
_cell_volume  106.81376250017209
_cell_formula_units_Z  1
loop_
  _symmetry_equiv_pos_site_id
 _symmetry_equiv_pos_as_xyz
 1  'x, y, z'
loop_
 _atom_site_type_symbol
 _atom_site_label
 _atom_site_symmetry_multiplicity
 _atom_site_fract_x
 _atom_site_fract_y
 _atom_site_fract_z
 _atom_site_fract_occupancy
 C  C1  1  0.00000  0.00000  0.00000  1
 C  C2  1  0.25198  0.73873  0.50396  1
 C  C3  1  0.74802  0.26127  0.49604  1
 Ce  Ce1  1  0.39574  0.19264  0.79147  1
 Ce  Ce2  1  0.60426  0.80736  0.20853  1
 Mo  Mo1  1  0.15844  0.32565  0.31688  1
 Mo  Mo2  1  0.84156  0.67435  0.68312  1
