CIF file written using JARVIS-Tools package.
data_Li2BeF4
_symmetry_space_group_name_H-M  'R-3'
_cell_length_a       8.25769
_cell_length_b       8.25769
_cell_length_c       8.25769
_cell_angle_alpha    107.756
_cell_angle_beta     107.756
_cell_angle_gamma    107.756

_symmetry_Int_Tables_number  148
_chemical_formula_structural  Li2BeF4
_chemical_formula_sum  Li2Be6F24
_cell_volume  458.92568250917407
_cell_formula_units_Z  6
loop_
  _symmetry_equiv_pos_site_id
 _symmetry_equiv_pos_as_xyz
 1  'x, y, z'
loop_
 _atom_site_type_symbol
 _atom_site_label
 _atom_site_symmetry_multiplicity
 _atom_site_fract_x
 _atom_site_fract_y
 _atom_site_fract_z
 _atom_site_fract_occupancy
 Be  Be1  1  0.94655  0.76599  0.53831  1
 Be  Be2  1  0.76599  0.53831  0.94655  1
 Be  Be3  1  0.53831  0.94655  0.76599  1
 Be  Be4  1  0.05345  0.23401  0.46169  1
 Be  Be5  1  0.23401  0.46169  0.05345  1
 Be  Be6  1  0.46169  0.05345  0.23401  1
 F  F1  1  0.63701  0.64328  0.96381  1
 F  F2  1  0.75669  0.42693  0.06984  1
 F  F3  1  0.06984  0.75669  0.42693  1
 F  F4  1  0.30745  0.97532  0.02670  1
 F  F5  1  0.42693  0.06984  0.75669  1
 F  F6  1  0.26722  0.31153  0.60399  1
 F  F7  1  0.69255  0.02468  0.97330  1
 F  F8  1  0.97330  0.69255  0.02468  1
 F  F9  1  0.02468  0.97330  0.69255  1
 F  F10  1  0.73278  0.68847  0.39601  1
 F  F11  1  0.68847  0.39601  0.73278  1
 F  F12  1  0.39601  0.73278  0.68847  1
 F  F13  1  0.36299  0.35672  0.03619  1
 F  F14  1  0.31153  0.60399  0.26722  1
 F  F15  1  0.60399  0.26722  0.31153  1
 F  F16  1  0.97532  0.02670  0.30745  1
 F  F17  1  0.93016  0.24331  0.57307  1
 F  F18  1  0.35672  0.03619  0.36299  1
 F  F19  1  0.57307  0.93016  0.24331  1
 F  F20  1  0.96381  0.63701  0.64328  1
 F  F21  1  0.02670  0.30745  0.97532  1
 F  F22  1  0.64328  0.96381  0.63701  1
 F  F23  1  0.03619  0.36299  0.35672  1
 F  F24  1  0.24331  0.57307  0.93016  1
 Li  Li1  1  0.10206  0.87701  0.27562  1
 Li  Li2  1  0.87701  0.27562  0.10206  1
 Li  Li3  1  0.72438  0.89794  0.12299  1
 Li  Li4  1  0.89794  0.12299  0.72438  1
 Li  Li5  1  0.12299  0.72438  0.89794  1
 Li  Li6  1  0.20364  0.61200  0.43887  1
 Li  Li7  1  0.43887  0.20364  0.61200  1
 Li  Li8  1  0.38800  0.56113  0.79636  1
 Li  Li9  1  0.56113  0.79636  0.38800  1
 Li  Li10  1  0.79636  0.38800  0.56113  1
 Li  Li11  1  0.61200  0.43887  0.20364  1
 Li  Li12  1  0.27562  0.10206  0.87701  1
