CIF file written using JARVIS-Tools package.
data_NaNiAsO4
_symmetry_space_group_name_H-M  'R-3'
_cell_length_a       9.32316
_cell_length_b       9.32316
_cell_length_c       9.32316
_cell_angle_alpha    31.0277
_cell_angle_beta     31.0277
_cell_angle_gamma    31.0277

_symmetry_Int_Tables_number  148
_chemical_formula_structural  NaNiAsO4
_chemical_formula_sum  Na2Ni2As2O8
_cell_volume  191.01440889562537
_cell_formula_units_Z  2
loop_
  _symmetry_equiv_pos_site_id
 _symmetry_equiv_pos_as_xyz
 1  'x, y, z'
loop_
 _atom_site_type_symbol
 _atom_site_label
 _atom_site_symmetry_multiplicity
 _atom_site_fract_x
 _atom_site_fract_y
 _atom_site_fract_z
 _atom_site_fract_occupancy
 As  As1  1  0.43389  0.43389  0.43389  1
 As  As2  1  0.56611  0.56611  0.56611  1
 Na  Na1  1  0.71313  0.71313  0.71313  1
 Na  Na2  1  0.28687  0.28687  0.28687  1
 Ni  Ni1  1  0.83558  0.83558  0.83558  1
 Ni  Ni2  1  0.16442  0.16442  0.16442  1
 O  O1  1  0.46373  0.78373  0.11557  1
 O  O2  1  0.53627  0.21627  0.88443  1
 O  O3  1  0.11557  0.46373  0.78373  1
 O  O4  1  0.78373  0.11557  0.46373  1
 O  O5  1  0.37060  0.37060  0.37060  1
 O  O6  1  0.21627  0.88443  0.53627  1
 O  O7  1  0.62940  0.62940  0.62940  1
 O  O8  1  0.88443  0.53627  0.21627  1
