CIF file written using JARVIS-Tools package.
data_NaZr2ZnF11
_symmetry_space_group_name_H-M  'C2/m'
_cell_length_a       5.69606
_cell_length_b       5.69606
_cell_length_c       7.82942
_cell_angle_alpha    69.2168
_cell_angle_beta     69.2168
_cell_angle_gamma    72.8751

_symmetry_Int_Tables_number  12
_chemical_formula_structural  NaZr2ZnF11
_chemical_formula_sum  NaZr2ZnF
_cell_volume  217.87579259256376
_cell_formula_units_Z  1
loop_
  _symmetry_equiv_pos_site_id
 _symmetry_equiv_pos_as_xyz
 1  'x, y, z'
loop_
 _atom_site_type_symbol
 _atom_site_label
 _atom_site_symmetry_multiplicity
 _atom_site_fract_x
 _atom_site_fract_y
 _atom_site_fract_z
 _atom_site_fract_occupancy
 F  F1  1  0.81383  0.22253  0.68746  1
 F  F2  1  0.77747  0.18617  0.31254  1
 F  F3  1  0.18617  0.77747  0.31254  1
 F  F4  1  0.22253  0.81383  0.68746  1
 F  F5  1  0.50000  0.50000  0.50000  1
 F  F6  1  0.32804  0.67196  -0.00000  1
 F  F7  1  0.67196  0.32804  0.00000  1
 F  F8  1  0.24625  0.24625  0.34787  1
 F  F9  1  0.75375  0.75375  0.65213  1
 F  F10  1  0.26677  0.26677  0.89148  1
 F  F11  1  0.73323  0.73323  0.10852  1
 Na  Na1  1  0.00000  0.00000  0.00000  1
 Zn  Zn1  1  0.00000  -0.00000  0.50000  1
 Zr  Zr1  1  0.50628  0.50628  0.76414  1
 Zr  Zr2  1  0.49372  0.49372  0.23586  1
