CIF file written using JARVIS-Tools package.
data_Ni4Mo
_symmetry_space_group_name_H-M  'I4/m'
_cell_length_a       3.56318
_cell_length_b       4.42564
_cell_length_c       4.42564
_cell_angle_alpha    80.6738
_cell_angle_beta     66.2617
_cell_angle_gamma    66.2617

_symmetry_Int_Tables_number  87
_chemical_formula_structural  Ni4Mo
_chemical_formula_sum  Ni4Mo
_cell_volume  58.47960940192357
_cell_formula_units_Z  1
loop_
  _symmetry_equiv_pos_site_id
 _symmetry_equiv_pos_as_xyz
 1  'x, y, z'
loop_
 _atom_site_type_symbol
 _atom_site_label
 _atom_site_symmetry_multiplicity
 _atom_site_fract_x
 _atom_site_fract_y
 _atom_site_fract_z
 _atom_site_fract_occupancy
 Mo  Mo1  1  0.00000  0.00000  0.00000  1
 Ni  Ni1  1  0.80073  0.79908  0.59946  1
 Ni  Ni2  1  0.19927  0.20092  0.40054  1
 Ni  Ni3  1  0.59981  0.59946  0.20092  1
 Ni  Ni4  1  0.40019  0.40054  0.79908  1
