CIF file written using JARVIS-Tools package.
data_Cu2Te
_symmetry_space_group_name_H-M  'P6/mmm'
_cell_length_a       4.30264
_cell_length_b       4.30264
_cell_length_c       8.48014
_cell_angle_alpha    90
_cell_angle_beta     90
_cell_angle_gamma    120

_symmetry_Int_Tables_number  191
_chemical_formula_structural  Cu2Te
_chemical_formula_sum  Cu4Te2
_cell_volume  135.95791038121746
_cell_formula_units_Z  2
loop_
  _symmetry_equiv_pos_site_id
 _symmetry_equiv_pos_as_xyz
 1  'x, y, z'
loop_
 _atom_site_type_symbol
 _atom_site_label
 _atom_site_symmetry_multiplicity
 _atom_site_fract_x
 _atom_site_fract_y
 _atom_site_fract_z
 _atom_site_fract_occupancy
 Cu  Cu1  1  0.33333  0.66667  0.15071  1
 Cu  Cu2  1  0.66667  0.33333  0.15071  1
 Cu  Cu3  1  0.66667  0.33333  0.84929  1
 Cu  Cu4  1  0.33333  0.66667  0.84929  1
 Te  Te1  1  0.00000  0.00000  0.27310  1
 Te  Te2  1  0.00000  0.00000  0.72690  1
