CIF file written using JARVIS-Tools package.
data_NbPt2
_symmetry_space_group_name_H-M  'Immm'
_cell_length_a       2.83522
_cell_length_b       4.00509
_cell_length_c       4.94104
_cell_angle_alpha    113.909
_cell_angle_beta     106.673
_cell_angle_gamma    90

_symmetry_Int_Tables_number  71
_chemical_formula_structural  NbPt2
_chemical_formula_sum  NbPt2
_cell_volume  48.70100265489058
_cell_formula_units_Z  1
loop_
  _symmetry_equiv_pos_site_id
 _symmetry_equiv_pos_as_xyz
 1  'x, y, z'
loop_
 _atom_site_type_symbol
 _atom_site_label
 _atom_site_symmetry_multiplicity
 _atom_site_fract_x
 _atom_site_fract_y
 _atom_site_fract_z
 _atom_site_fract_occupancy
 Nb  Nb1  1  0.00000  0.00000  0.00000  1
 Pt  Pt1  1  0.33564  0.33564  0.67127  1
 Pt  Pt2  1  0.66436  0.66436  0.32873  1
