CIF file written using JARVIS-Tools package.
data_CuWO3F2
_symmetry_space_group_name_H-M  'P2_1/m'
_cell_length_a       3.73399
_cell_length_b       9.67062
_cell_length_c       5.2618
_cell_angle_alpha    90
_cell_angle_beta     106.251
_cell_angle_gamma    90

_symmetry_Int_Tables_number  11
_chemical_formula_structural  CuWO3F2
_chemical_formula_sum  Cu2W2O6F4
_cell_volume  182.41218996044148
_cell_formula_units_Z  2
loop_
  _symmetry_equiv_pos_site_id
 _symmetry_equiv_pos_as_xyz
 1  'x, y, z'
loop_
 _atom_site_type_symbol
 _atom_site_label
 _atom_site_symmetry_multiplicity
 _atom_site_fract_x
 _atom_site_fract_y
 _atom_site_fract_z
 _atom_site_fract_occupancy
 Cu  Cu1  1  -0.00000  0.50000  0.50000  1
 Cu  Cu2  1  -0.00000  0.00000  0.50000  1
 F  F1  1  0.34563  0.88873  0.35741  1
 F  F2  1  0.65437  0.11127  0.64259  1
 F  F3  1  0.65437  0.38873  0.64259  1
 F  F4  1  0.34563  0.61127  0.35741  1
 O  O1  1  0.12463  0.60834  0.80801  1
 O  O2  1  0.87537  0.39166  0.19199  1
 O  O3  1  0.87537  0.10834  0.19199  1
 O  O4  1  0.25534  0.25000  0.88827  1
 O  O5  1  0.74466  0.75000  0.11173  1
 O  O6  1  0.12463  0.89166  0.80801  1
 W  W1  1  0.78483  0.25000  0.96887  1
 W  W2  1  0.21517  0.75000  0.03113  1
