CIF file written using JARVIS-Tools package.
data_SrGa2H2
_symmetry_space_group_name_H-M  'P-3m1'
_cell_length_a       4.39601
_cell_length_b       4.39598
_cell_length_c       4.72153
_cell_angle_alpha    89.9998
_cell_angle_beta     90.0001
_cell_angle_gamma    120

_symmetry_Int_Tables_number  164
_chemical_formula_structural  SrGa2H2
_chemical_formula_sum  SrGa2H2
_cell_volume  79.01848231925072
_cell_formula_units_Z  1
loop_
  _symmetry_equiv_pos_site_id
 _symmetry_equiv_pos_as_xyz
 1  'x, y, z'
loop_
 _atom_site_type_symbol
 _atom_site_label
 _atom_site_symmetry_multiplicity
 _atom_site_fract_x
 _atom_site_fract_y
 _atom_site_fract_z
 _atom_site_fract_occupancy
 Ga  Ga1  1  0.33330  0.66667  0.46675  1
 Ga  Ga2  1  0.66662  0.33333  0.53325  1
 H  H1  1  0.33329  0.66667  0.10521  1
 H  H2  1  0.66663  0.33333  0.89479  1
 Sr  Sr1  1  0.99996  1.00000  0.00000  1
