data_image0
_chemical_formula_structural       N5Ta4
_chemical_formula_sum              "N5 Ta4"
_cell_length_a       4.27941
_cell_length_b       5.30454
_cell_length_c       5.30454
_cell_angle_alpha    99.3642
_cell_angle_beta     113.789
_cell_angle_gamma    66.2108

_space_group_name_H-M_alt    "P 1"
_space_group_IT_number       1

loop_
  _space_group_symop_operation_xyz
  'x, y, z'

loop_
  _atom_site_type_symbol
  _atom_site_label
  _atom_site_symmetry_multiplicity
  _atom_site_fract_x
  _atom_site_fract_y
  _atom_site_fract_z
  _atom_site_occupancy
  N   N1        1.0  0.50000  0.00000  0.00000  1.0000
  N   N2        1.0  0.30600  0.60300  0.21500  1.0000
  N   N3        1.0  0.09120  0.21500  0.39700  1.0000
  N   N4        1.0  0.90900  0.78500  0.60300  1.0000
  N   N5        1.0  0.69400  0.39700  0.78500  1.0000
  Ta  Ta1       1.0  0.78400  0.61100  0.17900  1.0000
  Ta  Ta2       1.0  0.60500  0.17900  0.38900  1.0000
  Ta  Ta3       1.0  0.39500  0.82100  0.61100  1.0000
  Ta  Ta4       1.0  0.21600  0.38900  0.82100  1.0000
