CIF file written using JARVIS-Tools package.
data_SmMoClO4
_symmetry_space_group_name_H-M  'C2/m'
_cell_length_a       6.38028
_cell_length_b       6.38029
_cell_length_c       6.94036
_cell_angle_alpha    76.2904
_cell_angle_beta     76.2903
_cell_angle_gamma    70.8185

_symmetry_Int_Tables_number  12
_chemical_formula_structural  SmMoClO4
_chemical_formula_sum  Sm2Mo2Cl2O8
_cell_volume  255.31185675243083
_cell_formula_units_Z  2
loop_
  _symmetry_equiv_pos_site_id
 _symmetry_equiv_pos_as_xyz
 1  'x, y, z'
loop_
 _atom_site_type_symbol
 _atom_site_label
 _atom_site_symmetry_multiplicity
 _atom_site_fract_x
 _atom_site_fract_y
 _atom_site_fract_z
 _atom_site_fract_occupancy
 Cl  Cl1  1  0.01018  0.01018  0.23957  1
 Cl  Cl2  1  0.98982  0.98982  0.76043  1
 Mo  Mo1  1  0.63739  0.63739  0.73083  1
 Mo  Mo2  1  0.36261  0.36261  0.26917  1
 O  O1  1  0.11647  0.48953  0.15211  1
 O  O2  1  0.70613  0.70613  0.46876  1
 O  O3  1  0.46093  0.46093  0.79367  1
 O  O4  1  0.29387  0.29387  0.53124  1
 O  O5  1  0.53907  0.53907  0.20633  1
 O  O6  1  0.51047  0.88353  0.84789  1
 O  O7  1  0.88353  0.51047  0.84789  1
 O  O8  1  0.48953  0.11647  0.15211  1
 Sm  Sm1  1  0.22182  0.22182  0.88941  1
 Sm  Sm2  1  0.77818  0.77818  0.11059  1
