CIF file written using JARVIS-Tools package.
data_Sm2ReC2
_symmetry_space_group_name_H-M  'Pnma'
_cell_length_a       5.26608
_cell_length_b       6.65557
_cell_length_c       10.0565
_cell_angle_alpha    90
_cell_angle_beta     90
_cell_angle_gamma    90

_symmetry_Int_Tables_number  62
_chemical_formula_structural  Sm2ReC2
_chemical_formula_sum  Sm8Re4C8
_cell_volume  352.4697039839857
_cell_formula_units_Z  4
loop_
  _symmetry_equiv_pos_site_id
 _symmetry_equiv_pos_as_xyz
 1  'x, y, z'
loop_
 _atom_site_type_symbol
 _atom_site_label
 _atom_site_symmetry_multiplicity
 _atom_site_fract_x
 _atom_site_fract_y
 _atom_site_fract_z
 _atom_site_fract_occupancy
 C  C1  1  0.75000  0.31684  0.54362  1
 C  C2  1  0.75000  0.81684  0.95638  1
 C  C3  1  0.25000  0.68316  0.45638  1
 C  C4  1  0.75000  0.96071  0.25835  1
 C  C5  1  0.25000  0.53929  0.75835  1
 C  C6  1  0.75000  0.46071  0.24165  1
 C  C7  1  0.25000  0.03929  0.74165  1
 C  C8  1  0.25000  0.18316  0.04362  1
 Re  Re1  1  0.75000  0.22598  0.36179  1
 Re  Re2  1  0.25000  0.27402  0.86179  1
 Re  Re3  1  0.25000  0.77402  0.63821  1
 Re  Re4  1  0.75000  0.72598  0.13821  1
 Sm  Sm1  1  0.25000  0.31383  0.55180  1
 Sm  Sm2  1  0.75000  0.68617  0.44820  1
 Sm  Sm3  1  0.25000  0.81383  0.94820  1
 Sm  Sm4  1  0.75000  0.18617  0.05180  1
 Sm  Sm5  1  0.25000  0.47318  0.21484  1
 Sm  Sm6  1  0.75000  0.02682  0.71484  1
 Sm  Sm7  1  0.25000  0.97318  0.28516  1
 Sm  Sm8  1  0.75000  0.52682  0.78516  1
