CIF file written using JARVIS-Tools package.
data_Ba2SrI6
_symmetry_space_group_name_H-M  'P4_2/mnm'
_cell_length_a       7.87975
_cell_length_b       7.87975
_cell_length_c       15.4326
_cell_angle_alpha    90
_cell_angle_beta     90
_cell_angle_gamma    90

_symmetry_Int_Tables_number  136
_chemical_formula_structural  Ba2SrI6
_chemical_formula_sum  Ba4Sr2I2
_cell_volume  958.2158743803303
_cell_formula_units_Z  2
loop_
  _symmetry_equiv_pos_site_id
 _symmetry_equiv_pos_as_xyz
 1  'x, y, z'
loop_
 _atom_site_type_symbol
 _atom_site_label
 _atom_site_symmetry_multiplicity
 _atom_site_fract_x
 _atom_site_fract_y
 _atom_site_fract_z
 _atom_site_fract_occupancy
 Ba  Ba1  1  0.00000  0.00000  0.00088  1
 Ba  Ba2  1  0.00000  0.00000  0.33411  1
 Ba  Ba3  1  0.50000  0.50000  0.50088  1
 Ba  Ba4  1  0.50000  0.50000  0.83411  1
 I  I1  1  0.20601  0.79399  0.16750  1
 I  I2  1  0.19365  0.80635  0.82694  1
 I  I3  1  0.80635  0.19365  0.82694  1
 I  I4  1  0.30635  0.30635  0.00804  1
 I  I5  1  0.19365  0.80635  0.50804  1
 I  I6  1  0.29399  0.29399  0.66750  1
 I  I7  1  0.69365  0.69365  0.32694  1
 I  I8  1  0.30635  0.30635  0.32694  1
 I  I9  1  0.69365  0.69365  0.00804  1
 I  I10  1  0.80635  0.19365  0.50804  1
 I  I11  1  0.70601  0.70601  0.66750  1
 I  I12  1  0.79399  0.20601  0.16750  1
 Sr  Sr1  1  0.50000  0.50000  0.16749  1
 Sr  Sr2  1  0.00000  0.00000  0.66749  1
