CIF file written using JARVIS-Tools package.
data_PdBr2
_symmetry_space_group_name_H-M  'C2/c'
_cell_length_a       3.96394
_cell_length_b       6.6424
_cell_length_c       25.1149
_cell_angle_alpha    86.6874
_cell_angle_beta     90
_cell_angle_gamma    90

_symmetry_Int_Tables_number  15
_chemical_formula_structural  PdBr2
_chemical_formula_sum  Pd8Br6
_cell_volume  660.1719190977755
_cell_formula_units_Z  8
loop_
  _symmetry_equiv_pos_site_id
 _symmetry_equiv_pos_as_xyz
 1  'x, y, z'
loop_
 _atom_site_type_symbol
 _atom_site_label
 _atom_site_symmetry_multiplicity
 _atom_site_fract_x
 _atom_site_fract_y
 _atom_site_fract_z
 _atom_site_fract_occupancy
 Br  Br1  1  0.92995  0.36051  0.44195  1
 Br  Br2  1  0.07005  0.61051  0.69195  1
 Br  Br3  1  0.42995  0.61051  0.19195  1
 Br  Br4  1  0.92995  0.38949  0.30805  1
 Br  Br5  1  0.57005  0.88949  0.30805  1
 Br  Br6  1  0.07005  0.11051  0.19195  1
 Br  Br7  1  0.42995  0.11051  0.69195  1
 Br  Br8  1  0.92995  0.88949  0.80805  1
 Br  Br9  1  0.92995  0.86051  0.94195  1
 Br  Br10  1  0.42995  0.13949  0.55805  1
 Br  Br11  1  0.57005  0.38949  0.80805  1
 Br  Br12  1  0.57005  0.86051  0.44195  1
 Br  Br13  1  0.42995  0.63949  0.05805  1
 Br  Br14  1  0.07005  0.63949  0.55805  1
 Br  Br15  1  0.57005  0.36051  0.94195  1
 Br  Br16  1  0.07005  0.13949  0.05805  1
 Pd  Pd1  1  0.25000  0.37500  0.62500  1
 Pd  Pd2  1  0.75000  0.12500  0.37500  1
 Pd  Pd3  1  0.25000  0.87500  0.12500  1
 Pd  Pd4  1  0.25000  0.87500  0.62500  1
 Pd  Pd5  1  0.75000  0.12500  0.87500  1
 Pd  Pd6  1  0.75000  0.62500  0.37500  1
 Pd  Pd7  1  0.25000  0.37500  0.12500  1
 Pd  Pd8  1  0.75000  0.62500  0.87500  1
