CIF file written using JARVIS-Tools package.
data_Y2C
_symmetry_space_group_name_H-M  'R-3m'
_cell_length_a       6.43158
_cell_length_b       6.43158
_cell_length_c       6.43159
_cell_angle_alpha    32.5217
_cell_angle_beta     32.5217
_cell_angle_gamma    32.5217

_symmetry_Int_Tables_number  166
_chemical_formula_structural  Y2C
_chemical_formula_sum  Y2C
_cell_volume  68.37804737659361
_cell_formula_units_Z  1
loop_
  _symmetry_equiv_pos_site_id
 _symmetry_equiv_pos_as_xyz
 1  'x, y, z'
loop_
 _atom_site_type_symbol
 _atom_site_label
 _atom_site_symmetry_multiplicity
 _atom_site_fract_x
 _atom_site_fract_y
 _atom_site_fract_z
 _atom_site_fract_occupancy
 C  C1  1  0.00000  0.00000  0.00000  1
 Y  Y1  1  0.74044  0.74044  0.74044  1
 Y  Y2  1  0.25956  0.25956  0.25956  1
