CIF file written using JARVIS-Tools package.
data_ZrP2
_symmetry_space_group_name_H-M  'Pnma'
_cell_length_a       3.55267
_cell_length_b       6.55959
_cell_length_c       8.82049
_cell_angle_alpha    90
_cell_angle_beta     90
_cell_angle_gamma    90

_symmetry_Int_Tables_number  62
_chemical_formula_structural  ZrP2
_chemical_formula_sum  Zr4P8
_cell_volume  205.55329925160692
_cell_formula_units_Z  4
loop_
  _symmetry_equiv_pos_site_id
 _symmetry_equiv_pos_as_xyz
 1  'x, y, z'
loop_
 _atom_site_type_symbol
 _atom_site_label
 _atom_site_symmetry_multiplicity
 _atom_site_fract_x
 _atom_site_fract_y
 _atom_site_fract_z
 _atom_site_fract_occupancy
 P  P1  1  0.25000  0.40641  0.14569  1
 P  P2  1  0.75000  0.59359  0.85431  1
 P  P3  1  0.25000  0.90641  0.35431  1
 P  P4  1  0.75000  0.09359  0.64569  1
 P  P5  1  0.75000  0.10918  0.03966  1
 P  P6  1  0.25000  0.89082  0.96034  1
 P  P7  1  0.75000  0.60918  0.46034  1
 P  P8  1  0.25000  0.39082  0.53966  1
 Zr  Zr1  1  0.25000  0.77973  0.66239  1
 Zr  Zr2  1  0.75000  0.22027  0.33761  1
 Zr  Zr3  1  0.25000  0.27973  0.83761  1
 Zr  Zr4  1  0.75000  0.72027  0.16239  1
