CIF file written using JARVIS-Tools package.
data_U2FeS5
_symmetry_space_group_name_H-M  'C2/c'
_cell_length_a       6.01575
_cell_length_b       6.97525
_cell_length_c       7.8598
_cell_angle_alpha    96.6876
_cell_angle_beta     112.5
_cell_angle_gamma    90

_symmetry_Int_Tables_number  15
_chemical_formula_structural  U2FeS5
_chemical_formula_sum  U4Fe2S0
_cell_volume  302.2717505501583
_cell_formula_units_Z  2
loop_
  _symmetry_equiv_pos_site_id
 _symmetry_equiv_pos_as_xyz
 1  'x, y, z'
loop_
 _atom_site_type_symbol
 _atom_site_label
 _atom_site_symmetry_multiplicity
 _atom_site_fract_x
 _atom_site_fract_y
 _atom_site_fract_z
 _atom_site_fract_occupancy
 Fe  Fe1  1  -0.00000  0.50000  0.50000  1
 Fe  Fe2  1  0.50000  -0.00000  0.50000  1
 S  S1  1  0.30686  0.30879  0.44306  1
 S  S2  1  0.86380  0.19121  0.55694  1
 S  S3  1  0.69314  0.69121  0.55694  1
 S  S4  1  0.13620  0.80879  0.44306  1
 S  S5  1  0.52531  0.07469  0.81531  1
 S  S6  1  0.71001  0.42531  0.18469  1
 S  S7  1  0.90239  0.75000  0.00000  1
 S  S8  1  0.09761  0.25000  -0.00000  1
 S  S9  1  0.28999  0.57469  0.81531  1
 S  S10  1  0.47469  0.92531  0.18469  1
 U  U1  1  0.31455  0.58398  0.21773  1
 U  U2  1  0.09683  0.91602  0.78227  1
 U  U3  1  0.90317  0.08398  0.21773  1
 U  U4  1  0.68545  0.41602  0.78227  1
