CIF file written using JARVIS-Tools package.
data_Pb2SO4F2
_symmetry_space_group_name_H-M  'C2/c'
_cell_length_a       4.45269
_cell_length_b       7.52842
_cell_length_c       8.66404
_cell_angle_alpha    107.189
_cell_angle_beta     90
_cell_angle_gamma    107.201

_symmetry_Int_Tables_number  15
_chemical_formula_structural  Pb2SO4F2
_chemical_formula_sum  Pb4S2O8F4
_cell_volume  263.8325254147537
_cell_formula_units_Z  2
loop_
  _symmetry_equiv_pos_site_id
 _symmetry_equiv_pos_as_xyz
 1  'x, y, z'
loop_
 _atom_site_type_symbol
 _atom_site_label
 _atom_site_symmetry_multiplicity
 _atom_site_fract_x
 _atom_site_fract_y
 _atom_site_fract_z
 _atom_site_fract_occupancy
 F  F1  1  0.72481  0.50768  0.37866  1
 F  F2  1  0.78288  0.50768  0.87866  1
 F  F3  1  0.21712  0.49232  0.12134  1
 F  F4  1  0.27519  0.49232  0.62134  1
 O  O1  1  0.05114  0.82020  0.71001  1
 O  O2  1  0.23094  0.17980  0.78999  1
 O  O3  1  0.75477  0.99214  0.60820  1
 O  O4  1  0.76263  0.00786  0.89180  1
 O  O5  1  0.76906  0.82020  0.21001  1
 O  O6  1  0.94886  0.17980  0.28999  1
 O  O7  1  0.24523  0.00786  0.39180  1
 O  O8  1  0.23737  0.99214  0.10820  1
 Pb  Pb1  1  0.66899  0.30898  0.57590  1
 Pb  Pb2  1  0.33101  0.69102  0.42410  1
 Pb  Pb3  1  0.36001  0.69102  0.92410  1
 Pb  Pb4  1  0.63999  0.30898  0.07590  1
 S  S1  1  0.95606  -0.00000  0.75000  1
 S  S2  1  0.04394  0.00000  0.25000  1
