CIF file written using JARVIS-Tools package.
data_LiGaMo2O8
_symmetry_space_group_name_H-M  'P-1'
_cell_length_a       6.76559
_cell_length_b       7.15645
_cell_length_c       7.28155
_cell_angle_alpha    90.9084
_cell_angle_beta     110.352
_cell_angle_gamma    105.308

_symmetry_Int_Tables_number  2
_chemical_formula_structural  LiGaMo2O8
_chemical_formula_sum  Li2Ga2Mo4O6
_cell_volume  316.55186248068014
_cell_formula_units_Z  2
loop_
  _symmetry_equiv_pos_site_id
 _symmetry_equiv_pos_as_xyz
 1  'x, y, z'
loop_
 _atom_site_type_symbol
 _atom_site_label
 _atom_site_symmetry_multiplicity
 _atom_site_fract_x
 _atom_site_fract_y
 _atom_site_fract_z
 _atom_site_fract_occupancy
 Ga  Ga1  1  0.40153  0.09944  0.31893  1
 Ga  Ga2  1  0.59847  0.90056  0.68107  1
 Li  Li1  1  0.22798  0.55248  0.74806  1
 Li  Li2  1  0.77202  0.44752  0.25194  1
 Mo  Mo1  1  0.82224  0.96396  0.22041  1
 Mo  Mo2  1  0.17776  0.03604  0.77959  1
 Mo  Mo3  1  0.66880  0.42514  0.71142  1
 Mo  Mo4  1  0.33120  0.57486  0.28858  1
 O  O1  1  0.23455  0.04277  0.03685  1
 O  O2  1  0.76545  0.95723  0.96315  1
 O  O3  1  0.25185  0.57215  0.03692  1
 O  O4  1  0.41742  0.84084  0.38608  1
 O  O5  1  0.58258  0.15916  0.61392  1
 O  O6  1  0.28438  0.27608  0.73895  1
 O  O7  1  0.68536  0.13092  0.27127  1
 O  O8  1  0.88595  0.95049  0.64590  1
 O  O9  1  0.11405  0.04951  0.35410  1
 O  O10  1  0.51915  0.61720  0.65140  1
 O  O11  1  0.71562  0.72392  0.26105  1
 O  O12  1  0.09105  0.48085  0.33207  1
 O  O13  1  0.90895  0.51915  0.66793  1
 O  O14  1  0.31464  0.86908  0.72873  1
 O  O15  1  0.48085  0.38280  0.34860  1
 O  O16  1  0.74815  0.42785  0.96308  1
