CIF file written using JARVIS-Tools package.
data_Hf5Sb9
_symmetry_space_group_name_H-M  'P4/n'
_cell_length_a       8.86978
_cell_length_b       8.86978
_cell_length_c       8.71458
_cell_angle_alpha    90
_cell_angle_beta     90
_cell_angle_gamma    90

_symmetry_Int_Tables_number  85
_chemical_formula_structural  Hf5Sb9
_chemical_formula_sum  Hf0Sb8
_cell_volume  685.6021680588634
_cell_formula_units_Z  2
loop_
  _symmetry_equiv_pos_site_id
 _symmetry_equiv_pos_as_xyz
 1  'x, y, z'
loop_
 _atom_site_type_symbol
 _atom_site_label
 _atom_site_symmetry_multiplicity
 _atom_site_fract_x
 _atom_site_fract_y
 _atom_site_fract_z
 _atom_site_fract_occupancy
 Hf  Hf1  1  0.00000  0.50000  0.25598  1
 Hf  Hf2  1  0.79326  0.89468  0.26721  1
 Hf  Hf3  1  0.60532  0.29326  0.26721  1
 Hf  Hf4  1  0.89468  0.20674  0.73279  1
 Hf  Hf5  1  0.20674  0.10532  0.26721  1
 Hf  Hf6  1  0.50000  0.00000  0.74402  1
 Hf  Hf7  1  0.10532  0.79326  0.73279  1
 Hf  Hf8  1  0.70674  0.60532  0.73279  1
 Hf  Hf9  1  0.29326  0.39468  0.73279  1
 Hf  Hf10  1  0.39468  0.70674  0.26721  1
 Sb  Sb1  1  0.07990  0.26839  0.00239  1
 Sb  Sb2  1  0.92010  0.73161  0.00239  1
 Sb  Sb3  1  0.26839  0.92010  0.99761  1
 Sb  Sb4  1  0.69662  0.59689  0.37982  1
 Sb  Sb5  1  0.76839  0.42010  0.00239  1
 Sb  Sb6  1  0.80338  0.90311  0.62018  1
 Sb  Sb7  1  0.90311  0.19662  0.37982  1
 Sb  Sb8  1  0.59689  0.30338  0.62018  1
 Sb  Sb9  1  0.00000  0.50000  0.61001  1
 Sb  Sb10  1  0.73161  0.07990  0.99761  1
 Sb  Sb11  1  0.57990  0.76839  0.99761  1
 Sb  Sb12  1  0.09689  0.80338  0.37982  1
 Sb  Sb13  1  0.50000  0.00000  0.38999  1
 Sb  Sb14  1  0.23161  0.57990  0.00239  1
 Sb  Sb15  1  0.40311  0.69662  0.62018  1
 Sb  Sb16  1  0.42010  0.23161  0.99761  1
 Sb  Sb17  1  0.19662  0.09689  0.62018  1
 Sb  Sb18  1  0.30338  0.40311  0.37982  1
