CIF file written using JARVIS-Tools package.
data_Ba2Sb2O7
_symmetry_space_group_name_H-M  'Imma'
_cell_length_a       7.76114
_cell_length_b       7.76114
_cell_length_c       7.76114
_cell_angle_alpha    119.797
_cell_angle_beta     92.4433
_cell_angle_gamma    117.415

_symmetry_Int_Tables_number  74
_chemical_formula_structural  Ba2Sb2O7
_chemical_formula_sum  Ba4Sb4O4
_cell_volume  337.0277755540667
_cell_formula_units_Z  2
loop_
  _symmetry_equiv_pos_site_id
 _symmetry_equiv_pos_as_xyz
 1  'x, y, z'
loop_
 _atom_site_type_symbol
 _atom_site_label
 _atom_site_symmetry_multiplicity
 _atom_site_fract_x
 _atom_site_fract_y
 _atom_site_fract_z
 _atom_site_fract_occupancy
 Ba  Ba1  1  0.00000  0.00000  0.00000  1
 Ba  Ba2  1  0.50000  0.00000  0.50000  1
 Ba  Ba3  1  -0.00000  0.50000  -0.00000  1
 Ba  Ba4  1  0.00000  0.00000  0.50000  1
 O  O1  1  0.80580  0.22785  0.18224  1
 O  O2  1  0.40212  0.15212  0.25000  1
 O  O3  1  0.59788  0.84788  0.75000  1
 O  O4  1  0.79626  0.70806  0.08820  1
 O  O5  1  0.54560  0.62356  0.31776  1
 O  O6  1  0.88013  0.29194  0.58820  1
 O  O7  1  0.80580  0.62356  0.57795  1
 O  O8  1  0.19420  0.37644  0.42205  1
 O  O9  1  0.54560  0.22785  0.92205  1
 O  O10  1  0.45440  0.77215  0.07795  1
 O  O11  1  0.11987  0.70806  0.41180  1
 O  O12  1  0.20374  0.29194  0.91180  1
 O  O13  1  0.45440  0.37644  0.68224  1
 O  O14  1  0.19420  0.77215  0.81776  1
 Sb  Sb1  1  0.00000  0.50000  0.50000  1
 Sb  Sb2  1  0.50000  0.50000  0.50000  1
 Sb  Sb3  1  0.50000  0.50000  0.00000  1
 Sb  Sb4  1  0.50000  -0.00000  0.00000  1
