CIF file written using JARVIS-Tools package.
data_Tb3CuGeS7
_symmetry_space_group_name_H-M  'P6_3'
_cell_length_a       9.89272
_cell_length_b       9.89272
_cell_length_c       5.80206
_cell_angle_alpha    90
_cell_angle_beta     90
_cell_angle_gamma    120

_symmetry_Int_Tables_number  173
_chemical_formula_structural  Tb3CuGeS7
_chemical_formula_sum  Tb6Cu2Ge2S4
_cell_volume  491.7503542986693
_cell_formula_units_Z  2
loop_
  _symmetry_equiv_pos_site_id
 _symmetry_equiv_pos_as_xyz
 1  'x, y, z'
loop_
 _atom_site_type_symbol
 _atom_site_label
 _atom_site_symmetry_multiplicity
 _atom_site_fract_x
 _atom_site_fract_y
 _atom_site_fract_z
 _atom_site_fract_occupancy
 Cu  Cu1  1  0.00000  0.00000  0.70087  1
 Cu  Cu2  1  0.00000  0.00000  0.20087  1
 Ge  Ge1  1  0.66667  0.33333  0.83345  1
 Ge  Ge2  1  0.33333  0.66667  0.33345  1
 S  S1  1  0.16053  0.26014  0.21926  1
 S  S2  1  0.51945  0.42257  0.99510  1
 S  S3  1  0.90312  0.48055  0.99510  1
 S  S4  1  0.73986  0.90039  0.21926  1
 S  S5  1  0.42257  0.90312  0.49510  1
 S  S6  1  0.48055  0.57743  0.49510  1
 S  S7  1  0.33333  0.66667  0.95326  1
 S  S8  1  0.09688  0.51945  0.49510  1
 S  S9  1  0.83947  0.73986  0.71926  1
 S  S10  1  0.26014  0.09961  0.71926  1
 S  S11  1  0.57743  0.09688  0.99510  1
 S  S12  1  0.90039  0.16053  0.71926  1
 S  S13  1  0.66667  0.33333  0.45326  1
 S  S14  1  0.09961  0.83947  0.21926  1
 Tb  Tb1  1  0.77570  0.64225  0.25255  1
 Tb  Tb2  1  0.86655  0.22430  0.25255  1
 Tb  Tb3  1  0.13345  0.77570  0.75255  1
 Tb  Tb4  1  0.35775  0.13345  0.25255  1
 Tb  Tb5  1  0.64225  0.86655  0.75255  1
 Tb  Tb6  1  0.22430  0.35775  0.75255  1
