CIF file written using JARVIS-Tools package.
data_PrPd2O4
_symmetry_space_group_name_H-M  'I4_1/a'
_cell_length_a       5.93629
_cell_length_b       5.93629
_cell_length_c       6.63291
_cell_angle_alpha    116.583
_cell_angle_beta     116.583
_cell_angle_gamma    89.9999

_symmetry_Int_Tables_number  88
_chemical_formula_structural  PrPd2O4
_chemical_formula_sum  Pr2Pd4O8
_cell_volume  180.9803633295872
_cell_formula_units_Z  2
loop_
  _symmetry_equiv_pos_site_id
 _symmetry_equiv_pos_as_xyz
 1  'x, y, z'
loop_
 _atom_site_type_symbol
 _atom_site_label
 _atom_site_symmetry_multiplicity
 _atom_site_fract_x
 _atom_site_fract_y
 _atom_site_fract_z
 _atom_site_fract_occupancy
 O  O1  1  0.82501  0.62782  0.35088  1
 O  O2  1  0.72306  0.32501  0.85088  1
 O  O3  1  0.12782  0.02587  0.85088  1
 O  O4  1  0.52587  0.22306  0.35088  1
 O  O5  1  0.17499  0.37218  0.64912  1
 O  O6  1  0.27694  0.67499  0.14912  1
 O  O7  1  0.47413  0.77694  0.64912  1
 O  O8  1  0.87218  0.97413  0.14912  1
 Pd  Pd1  1  0.50000  0.00000  0.00000  1
 Pd  Pd2  1  0.00000  0.00000  0.50000  1
 Pd  Pd3  1  0.50000  0.00000  0.50000  1
 Pd  Pd4  1  0.50000  0.50000  -0.00000  1
 Pr  Pr1  1  0.87500  0.62500  0.75000  1
 Pr  Pr2  1  0.12500  0.37500  0.25000  1
