CIF file written using JARVIS-Tools package.
data_PrMgNi4
_symmetry_space_group_name_H-M  'F-43m'
_cell_length_a       5.03076
_cell_length_b       5.03076
_cell_length_c       5.03077
_cell_angle_alpha    60
_cell_angle_beta     60
_cell_angle_gamma    60

_symmetry_Int_Tables_number  216
_chemical_formula_structural  PrMgNi4
_chemical_formula_sum  PrMgNi4
_cell_volume  90.03008281182936
_cell_formula_units_Z  1
loop_
  _symmetry_equiv_pos_site_id
 _symmetry_equiv_pos_as_xyz
 1  'x, y, z'
loop_
 _atom_site_type_symbol
 _atom_site_label
 _atom_site_symmetry_multiplicity
 _atom_site_fract_x
 _atom_site_fract_y
 _atom_site_fract_z
 _atom_site_fract_occupancy
 Mg  Mg1  1  0.25000  0.25000  0.25000  1
 Ni  Ni1  1  0.62332  0.62332  0.62332  1
 Ni  Ni2  1  0.62332  0.13005  0.62332  1
 Ni  Ni3  1  0.62332  0.62332  0.13005  1
 Ni  Ni4  1  0.13005  0.62332  0.62332  1
 Pr  Pr1  1  0.00000  0.00000  0.00000  1
