CIF file written using JARVIS-Tools package.
data_RbVI2O8
_symmetry_space_group_name_H-M  'P-1'
_cell_length_a       5.28101
_cell_length_b       7.98736
_cell_length_c       9.64137
_cell_angle_alpha    107.517
_cell_angle_beta     90.6953
_cell_angle_gamma    91.7335

_symmetry_Int_Tables_number  2
_chemical_formula_structural  RbVI2O8
_chemical_formula_sum  Rb2V2I4O6
_cell_volume  387.552331771238
_cell_formula_units_Z  2
loop_
  _symmetry_equiv_pos_site_id
 _symmetry_equiv_pos_as_xyz
 1  'x, y, z'
loop_
 _atom_site_type_symbol
 _atom_site_label
 _atom_site_symmetry_multiplicity
 _atom_site_fract_x
 _atom_site_fract_y
 _atom_site_fract_z
 _atom_site_fract_occupancy
 I  I1  1  0.68262  0.14582  0.43878  1
 I  I2  1  0.74290  0.63069  0.76793  1
 I  I3  1  0.25710  0.36931  0.23207  1
 I  I4  1  0.31738  0.85418  0.56122  1
 O  O1  1  0.80388  0.82763  0.26740  1
 O  O2  1  0.31912  0.73671  0.69905  1
 O  O3  1  0.36913  0.03644  0.38584  1
 O  O4  1  0.07805  0.34750  0.54323  1
 O  O5  1  0.68088  0.26329  0.30095  1
 O  O6  1  0.51421  0.47711  0.15483  1
 O  O7  1  0.42987  0.67012  0.40088  1
 O  O8  1  0.21846  0.17266  0.08094  1
 O  O9  1  0.63087  0.96356  0.61416  1
 O  O10  1  0.19612  0.17237  0.73260  1
 O  O11  1  0.57013  0.32988  0.59912  1
 O  O12  1  0.00388  0.49718  0.16999  1
 O  O13  1  0.48579  0.52289  0.84517  1
 O  O14  1  0.99612  0.50282  0.83001  1
 O  O15  1  0.92195  0.65250  0.45677  1
 O  O16  1  0.78154  0.82734  0.91906  1
 Rb  Rb1  1  0.73440  0.19287  0.91896  1
 Rb  Rb2  1  0.26560  0.80713  0.08104  1
 V  V1  1  0.23546  0.36270  0.69775  1
 V  V2  1  0.76454  0.63730  0.30225  1
