CIF file written using JARVIS-Tools package.
data_FePH6NO5
_symmetry_space_group_name_H-M  'Pmn2_1'
_cell_length_a       4.78001
_cell_length_b       5.6849
_cell_length_c       8.87119
_cell_angle_alpha    90
_cell_angle_beta     90
_cell_angle_gamma    90

_symmetry_Int_Tables_number  31
_chemical_formula_structural  FePH6NO5
_chemical_formula_sum  Fe2P2H2N2O0
_cell_volume  241.06435232173433
_cell_formula_units_Z  2
loop_
  _symmetry_equiv_pos_site_id
 _symmetry_equiv_pos_as_xyz
 1  'x, y, z'
loop_
 _atom_site_type_symbol
 _atom_site_label
 _atom_site_symmetry_multiplicity
 _atom_site_fract_x
 _atom_site_fract_y
 _atom_site_fract_z
 _atom_site_fract_occupancy
 Fe  Fe1  1  0.50969  0.50000  0.02357  1
 Fe  Fe2  1  0.00969  0.00000  0.97643  1
 H  H1  1  0.62717  0.34927  0.40650  1
 H  H2  1  0.81828  0.50000  0.53706  1
 H  H3  1  0.45579  0.50000  0.54395  1
 H  H4  1  0.95579  0.00000  0.45605  1
 H  H5  1  0.62717  0.65073  0.40650  1
 H  H6  1  0.07055  0.36108  0.19284  1
 H  H7  1  0.31828  0.00000  0.46294  1
 H  H8  1  0.12717  0.15073  0.59350  1
 H  H9  1  0.07055  0.63892  0.19284  1
 H  H10  1  0.57055  0.86108  0.80716  1
 H  H11  1  0.57055  0.13892  0.80716  1
 H  H12  1  0.12717  0.84927  0.59350  1
 N  N1  1  0.63253  0.50000  0.47249  1
 N  N2  1  0.13253  0.00000  0.52751  1
 O  O1  1  0.19248  0.50000  0.20777  1
 O  O2  1  0.25524  0.00000  0.16878  1
 O  O3  1  0.13182  0.50000  0.63326  1
 O  O4  1  0.75524  0.50000  0.83122  1
 O  O5  1  0.21606  0.71813  0.88103  1
 O  O6  1  0.71606  0.21813  0.11897  1
 O  O7  1  0.71606  0.78187  0.11897  1
 O  O8  1  0.63182  0.00000  0.36674  1
 O  O9  1  0.21606  0.28187  0.88103  1
 O  O10  1  0.69248  0.00000  0.79223  1
 P  P1  1  0.07130  0.50000  0.80482  1
 P  P2  1  0.57130  0.00000  0.19518  1
