CIF file written using JARVIS-Tools package.
data_Rb2ZrO3
_symmetry_space_group_name_H-M  'Cc'
_cell_length_a       7.2775
_cell_length_b       7.2775
_cell_length_c       5.89561
_cell_angle_alpha    85.7689
_cell_angle_beta     94.2311
_cell_angle_gamma    54.08

_symmetry_Int_Tables_number  9
_chemical_formula_structural  Rb2ZrO3
_chemical_formula_sum  Rb4Zr2O6
_cell_volume  249.51341560994106
_cell_formula_units_Z  2
loop_
  _symmetry_equiv_pos_site_id
 _symmetry_equiv_pos_as_xyz
 1  'x, y, z'
loop_
 _atom_site_type_symbol
 _atom_site_label
 _atom_site_symmetry_multiplicity
 _atom_site_fract_x
 _atom_site_fract_y
 _atom_site_fract_z
 _atom_site_fract_occupancy
 O  O1  1  0.25968  0.79954  0.77952  1
 O  O2  1  0.20046  0.74032  0.27952  1
 O  O3  1  0.84470  0.75213  0.53838  1
 O  O4  1  0.81238  0.12931  0.78662  1
 O  O5  1  0.24787  0.15530  0.03838  1
 O  O6  1  0.87069  0.18762  0.28662  1
 Rb  Rb1  1  0.62211  0.55484  0.53202  1
 Rb  Rb2  1  0.25643  0.23484  0.52665  1
 Rb  Rb3  1  0.44516  0.37789  0.03202  1
 Rb  Rb4  1  0.76516  0.74357  0.02665  1
 Zr  Zr1  1  0.98523  0.91227  0.53462  1
 Zr  Zr2  1  0.08773  0.01477  0.03462  1
