CIF file written using JARVIS-Tools package.
data_HoMoClO4
_symmetry_space_group_name_H-M  'C2/m'
_cell_length_a       6.25629
_cell_length_b       6.25629
_cell_length_c       6.83047
_cell_angle_alpha    75.8638
_cell_angle_beta     75.8638
_cell_angle_gamma    70.481

_symmetry_Int_Tables_number  12
_chemical_formula_structural  HoMoClO4
_chemical_formula_sum  Ho2Mo2Cl2O8
_cell_volume  240.4584872428287
_cell_formula_units_Z  2
loop_
  _symmetry_equiv_pos_site_id
 _symmetry_equiv_pos_as_xyz
 1  'x, y, z'
loop_
 _atom_site_type_symbol
 _atom_site_label
 _atom_site_symmetry_multiplicity
 _atom_site_fract_x
 _atom_site_fract_y
 _atom_site_fract_z
 _atom_site_fract_occupancy
 Cl  Cl1  1  0.00893  0.00893  0.23753  1
 Cl  Cl2  1  0.99107  0.99107  0.76247  1
 Ho  Ho1  1  0.22172  0.22172  0.89119  1
 Ho  Ho2  1  0.77828  0.77828  0.10881  1
 Mo  Mo1  1  0.63749  0.63749  0.73025  1
 Mo  Mo2  1  0.36251  0.36251  0.26975  1
 O  O1  1  0.54290  0.54290  0.20032  1
 O  O2  1  0.70512  0.70512  0.46295  1
 O  O3  1  0.50967  0.89100  0.84597  1
 O  O4  1  0.89100  0.50967  0.84597  1
 O  O5  1  0.29488  0.29488  0.53705  1
 O  O6  1  0.49033  0.10900  0.15403  1
 O  O7  1  0.10900  0.49033  0.15403  1
 O  O8  1  0.45710  0.45710  0.79968  1
