CIF file written using JARVIS-Tools package.
data_Ca2HfO4
_symmetry_space_group_name_H-M  'Pbca'
_cell_length_a       5.64869
_cell_length_b       5.7781
_cell_length_c       11.8862
_cell_angle_alpha    90
_cell_angle_beta     90
_cell_angle_gamma    90

_symmetry_Int_Tables_number  61
_chemical_formula_structural  Ca2HfO4
_chemical_formula_sum  Ca8Hf4O6
_cell_volume  387.94871197225274
_cell_formula_units_Z  4
loop_
  _symmetry_equiv_pos_site_id
 _symmetry_equiv_pos_as_xyz
 1  'x, y, z'
loop_
 _atom_site_type_symbol
 _atom_site_label
 _atom_site_symmetry_multiplicity
 _atom_site_fract_x
 _atom_site_fract_y
 _atom_site_fract_z
 _atom_site_fract_occupancy
 Ca  Ca1  1  0.00958  0.05502  0.34520  1
 Ca  Ca2  1  0.00958  0.44498  0.84520  1
 Ca  Ca3  1  0.49042  0.55502  0.34520  1
 Ca  Ca4  1  0.49042  0.94498  0.84520  1
 Ca  Ca5  1  0.50958  0.05502  0.15480  1
 Ca  Ca6  1  0.50958  0.44498  0.65480  1
 Ca  Ca7  1  0.99042  0.55502  0.15480  1
 Ca  Ca8  1  0.99042  0.94498  0.65480  1
 Hf  Hf1  1  0.00000  0.00000  0.00000  1
 Hf  Hf2  1  0.00000  0.50000  0.50000  1
 Hf  Hf3  1  0.50000  0.50000  0.00000  1
 Hf  Hf4  1  0.50000  0.00000  0.50000  1
 O  O1  1  0.09552  0.45897  0.33222  1
 O  O2  1  0.90448  0.95897  0.16778  1
 O  O3  1  0.19772  0.30037  0.03380  1
 O  O4  1  0.19772  0.19963  0.53380  1
 O  O5  1  0.30228  0.80037  0.03380  1
 O  O6  1  0.30228  0.69963  0.53380  1
 O  O7  1  0.09552  0.04103  0.83222  1
 O  O8  1  0.80228  0.80037  0.46620  1
 O  O9  1  0.59552  0.04103  0.66778  1
 O  O10  1  0.59552  0.45897  0.16778  1
 O  O11  1  0.69772  0.30037  0.46620  1
 O  O12  1  0.69772  0.19963  0.96620  1
 O  O13  1  0.40448  0.54103  0.83222  1
 O  O14  1  0.80228  0.69963  0.96620  1
 O  O15  1  0.40448  0.95897  0.33222  1
 O  O16  1  0.90448  0.54103  0.66778  1
