CIF file written using JARVIS-Tools package.
data_MnSeO4
_symmetry_space_group_name_H-M  'Cmcm'
_cell_length_a       5.03448
_cell_length_b       5.03447
_cell_length_c       6.7283
_cell_angle_alpha    90
_cell_angle_beta     90
_cell_angle_gamma    111.945

_symmetry_Int_Tables_number  63
_chemical_formula_structural  MnSeO4
_chemical_formula_sum  Mn2Se2O8
_cell_volume  158.17809578244425
_cell_formula_units_Z  2
loop_
  _symmetry_equiv_pos_site_id
 _symmetry_equiv_pos_as_xyz
 1  'x, y, z'
loop_
 _atom_site_type_symbol
 _atom_site_label
 _atom_site_symmetry_multiplicity
 _atom_site_fract_x
 _atom_site_fract_y
 _atom_site_fract_z
 _atom_site_fract_occupancy
 Mn  Mn1  1  0.00000  0.00000  0.00000  1
 Mn  Mn2  1  0.00000  0.00000  0.50000  1
 O  O1  1  0.75296  0.24704  0.45720  1
 O  O2  1  0.24704  0.75296  0.54280  1
 O  O3  1  0.22749  0.27899  0.75000  1
 O  O4  1  0.77251  0.72101  0.25000  1
 O  O5  1  0.75296  0.24704  0.04280  1
 O  O6  1  0.24704  0.75296  0.95720  1
 O  O7  1  0.72101  0.77251  0.75000  1
 O  O8  1  0.27899  0.22749  0.25000  1
 Se  Se1  1  0.64476  0.35524  0.25000  1
 Se  Se2  1  0.35524  0.64476  0.75000  1
