CIF file written using JARVIS-Tools package.
data_Ag3AuSe2
_symmetry_space_group_name_H-M  'I4_132'
_cell_length_a       8.7036
_cell_length_b       8.7036
_cell_length_c       8.7036
_cell_angle_alpha    109.471
_cell_angle_beta     109.471
_cell_angle_gamma    109.471

_symmetry_Int_Tables_number  214
_chemical_formula_structural  Ag3AuSe2
_chemical_formula_sum  Ag2Au4Se8
_cell_volume  507.5457417592242
_cell_formula_units_Z  4
loop_
  _symmetry_equiv_pos_site_id
 _symmetry_equiv_pos_as_xyz
 1  'x, y, z'
loop_
 _atom_site_type_symbol
 _atom_site_label
 _atom_site_symmetry_multiplicity
 _atom_site_fract_x
 _atom_site_fract_y
 _atom_site_fract_z
 _atom_site_fract_occupancy
 Ag  Ag1  1  0.25000  0.12851  0.87851  1
 Ag  Ag2  1  0.25000  0.62149  0.37149  1
 Ag  Ag3  1  0.37149  0.62149  0.75000  1
 Ag  Ag4  1  0.75000  0.87851  0.12851  1
 Ag  Ag5  1  0.62149  0.37149  0.25000  1
 Ag  Ag6  1  0.12851  0.75000  0.87851  1
 Ag  Ag7  1  0.75000  0.37149  0.62149  1
 Ag  Ag8  1  0.87851  0.25000  0.12851  1
 Ag  Ag9  1  0.62149  0.75000  0.37149  1
 Ag  Ag10  1  0.37149  0.25000  0.62149  1
 Ag  Ag11  1  0.87851  0.12851  0.75000  1
 Ag  Ag12  1  0.12851  0.87851  0.25000  1
 Au  Au1  1  0.25000  0.25000  0.25000  1
 Au  Au2  1  0.25000  0.50000  0.00000  1
 Au  Au3  1  -0.00000  0.25000  0.50000  1
 Au  Au4  1  0.50000  0.00000  0.25000  1
 Se  Se1  1  0.53859  0.50000  0.00000  1
 Se  Se2  1  -0.00000  0.53859  0.50000  1
 Se  Se3  1  0.50000  -0.00000  0.53859  1
 Se  Se4  1  0.96141  0.50000  -0.00000  1
 Se  Se5  1  0.50000  0.00000  0.96141  1
 Se  Se6  1  0.00000  0.96141  0.50000  1
 Se  Se7  1  0.53859  0.53859  0.53859  1
 Se  Se8  1  0.96141  0.96141  0.96141  1
