CIF file written using JARVIS-Tools package.
data_Zr2Fe3Ge
_symmetry_space_group_name_H-M  'P6_3/mmc'
_cell_length_a       5.00753
_cell_length_b       5.00753
_cell_length_c       8.1509
_cell_angle_alpha    90
_cell_angle_beta     90
_cell_angle_gamma    120

_symmetry_Int_Tables_number  194
_chemical_formula_structural  Zr2Fe3Ge
_chemical_formula_sum  Zr4Fe6Ge2
_cell_volume  177.00376792812446
_cell_formula_units_Z  2
loop_
  _symmetry_equiv_pos_site_id
 _symmetry_equiv_pos_as_xyz
 1  'x, y, z'
loop_
 _atom_site_type_symbol
 _atom_site_label
 _atom_site_symmetry_multiplicity
 _atom_site_fract_x
 _atom_site_fract_y
 _atom_site_fract_z
 _atom_site_fract_occupancy
 Fe  Fe1  1  0.82643  0.17357  0.75000  1
 Fe  Fe2  1  0.17357  0.34714  0.25000  1
 Fe  Fe3  1  0.65286  0.82643  0.25000  1
 Fe  Fe4  1  0.34714  0.17357  0.75000  1
 Fe  Fe5  1  0.82643  0.65286  0.75000  1
 Fe  Fe6  1  0.17357  0.82643  0.25000  1
 Ge  Ge1  1  0.00000  0.00000  0.50000  1
 Ge  Ge2  1  0.00000  0.00000  0.00000  1
 Zr  Zr1  1  0.66667  0.33333  0.06570  1
 Zr  Zr2  1  0.33333  0.66667  0.56570  1
 Zr  Zr3  1  0.66667  0.33333  0.43430  1
 Zr  Zr4  1  0.33333  0.66667  0.93430  1
