CIF file written using JARVIS-Tools package.
data_Mn
_symmetry_space_group_name_H-M  'I-43m'
_cell_length_a       7.40788
_cell_length_b       7.40788
_cell_length_c       7.40788
_cell_angle_alpha    109.471
_cell_angle_beta     109.471
_cell_angle_gamma    109.471

_symmetry_Int_Tables_number  217
_chemical_formula_structural  Mn
_chemical_formula_sum  Mn29
_cell_volume  312.93949442192275
_cell_formula_units_Z  29
loop_
  _symmetry_equiv_pos_site_id
 _symmetry_equiv_pos_as_xyz
 1  'x, y, z'
loop_
 _atom_site_type_symbol
 _atom_site_label
 _atom_site_symmetry_multiplicity
 _atom_site_fract_x
 _atom_site_fract_y
 _atom_site_fract_z
 _atom_site_fract_occupancy
 Mn  Mn1  1  0.00000  0.00000  0.00000  1
 Mn  Mn2  1  0.63722  0.63722  0.63722  1
 Mn  Mn3  1  0.36278  0.00000  0.00000  1
 Mn  Mn4  1  -0.00000  0.36278  -0.00000  1
 Mn  Mn5  1  0.00000  0.00000  0.36278  1
 Mn  Mn6  1  0.39483  0.39483  0.71316  1
 Mn  Mn7  1  0.60517  0.31833  -0.00000  1
 Mn  Mn8  1  0.31833  0.60517  -0.00000  1
 Mn  Mn9  1  -0.00000  0.31833  0.60517  1
 Mn  Mn10  1  0.28684  0.68167  0.68167  1
 Mn  Mn11  1  0.68167  0.28684  0.68167  1
 Mn  Mn12  1  0.31833  0.00000  0.60517  1
 Mn  Mn13  1  0.60517  0.00000  0.31833  1
 Mn  Mn14  1  -0.00000  0.60517  0.31833  1
 Mn  Mn15  1  0.71316  0.39483  0.39483  1
 Mn  Mn16  1  0.39483  0.71316  0.39483  1
 Mn  Mn17  1  0.68167  0.68167  0.28684  1
 Mn  Mn18  1  0.37037  0.37037  0.17784  1
 Mn  Mn19  1  0.62963  0.80747  0.00000  1
 Mn  Mn20  1  0.80747  0.62963  0.00000  1
 Mn  Mn21  1  0.00000  0.80747  0.62963  1
 Mn  Mn22  1  0.82216  0.19253  0.19253  1
 Mn  Mn23  1  0.19253  0.82216  0.19253  1
 Mn  Mn24  1  0.80747  0.00000  0.62963  1
 Mn  Mn25  1  0.62963  0.00000  0.80747  1
 Mn  Mn26  1  0.00000  0.62963  0.80747  1
 Mn  Mn27  1  0.17784  0.37037  0.37037  1
 Mn  Mn28  1  0.37037  0.17784  0.37037  1
 Mn  Mn29  1  0.19253  0.19253  0.82216  1
