CIF file written using JARVIS-Tools package.
data_Ca3Si2SnO9
_symmetry_space_group_name_H-M  'P2_1/c'
_cell_length_a       7.37805
_cell_length_b       10.1657
_cell_length_c       10.4785
_cell_angle_alpha    90
_cell_angle_beta     91.0798
_cell_angle_gamma    90

_symmetry_Int_Tables_number  14
_chemical_formula_structural  Ca3Si2SnO9
_chemical_formula_sum  Ca2Si8Sn4O36
_cell_volume  785.7817067799725
_cell_formula_units_Z  4
loop_
  _symmetry_equiv_pos_site_id
 _symmetry_equiv_pos_as_xyz
 1  'x, y, z'
loop_
 _atom_site_type_symbol
 _atom_site_label
 _atom_site_symmetry_multiplicity
 _atom_site_fract_x
 _atom_site_fract_y
 _atom_site_fract_z
 _atom_site_fract_occupancy
 Ca  Ca1  1  0.36396  0.92063  0.88894  1
 Ca  Ca2  1  0.11798  0.83381  0.58478  1
 Ca  Ca3  1  0.63604  0.07937  0.11106  1
 Ca  Ca4  1  0.36396  0.57937  0.38894  1
 Ca  Ca5  1  0.88202  0.33381  0.91522  1
 Ca  Ca6  1  0.62711  0.69485  0.09756  1
 Ca  Ca7  1  0.63604  0.42063  0.61106  1
 Ca  Ca8  1  0.88202  0.16619  0.41522  1
 Ca  Ca9  1  0.37289  0.30515  0.90244  1
 Ca  Ca10  1  0.62711  0.80515  0.59756  1
 Ca  Ca11  1  0.37289  0.19485  0.40244  1
 Ca  Ca12  1  0.11798  0.66619  0.08478  1
 O  O1  1  0.65821  0.61007  0.48353  1
 O  O2  1  0.85518  0.60780  0.96834  1
 O  O3  1  0.14482  0.10780  0.53166  1
 O  O4  1  0.38314  0.10771  0.73104  1
 O  O5  1  0.35262  0.73335  0.22164  1
 O  O6  1  0.09164  0.61698  0.50941  1
 O  O7  1  0.30466  0.00304  0.26295  1
 O  O8  1  0.34179  0.38993  0.51647  1
 O  O9  1  0.65821  0.88993  0.98353  1
 O  O10  1  0.34179  0.11007  0.01647  1
 O  O11  1  0.37972  0.66716  0.95672  1
 O  O12  1  0.14482  0.39220  0.03166  1
 O  O13  1  0.09164  0.88302  0.00941  1
 O  O14  1  0.90836  0.38302  0.49059  1
 O  O15  1  0.62028  0.16716  0.54328  1
 O  O16  1  0.91522  0.49620  0.74162  1
 O  O17  1  0.37972  0.83284  0.45672  1
 O  O18  1  0.62028  0.33284  0.04328  1
 O  O19  1  0.69534  0.99696  0.73705  1
 O  O20  1  0.30466  0.49696  0.76295  1
 O  O21  1  0.85518  0.89220  0.46834  1
 O  O22  1  0.90836  0.11698  0.99059  1
 O  O23  1  0.08478  0.99620  0.75838  1
 O  O24  1  0.89848  0.73214  0.26064  1
 O  O25  1  0.91522  0.00380  0.24162  1
 O  O26  1  0.08478  0.50380  0.25838  1
 O  O27  1  0.35262  0.76665  0.72164  1
 O  O28  1  0.64738  0.26665  0.77836  1
 O  O29  1  0.89848  0.76786  0.76064  1
 O  O30  1  0.10152  0.26786  0.73936  1
 O  O31  1  0.69534  0.50304  0.23705  1
 O  O32  1  0.64738  0.23335  0.27836  1
 O  O33  1  0.38314  0.39229  0.23104  1
 O  O34  1  0.61686  0.89229  0.26896  1
 O  O35  1  0.61686  0.60771  0.76896  1
 O  O36  1  0.10152  0.23214  0.23936  1
 Si  Si1  1  0.60016  0.13571  0.69391  1
 Si  Si2  1  0.39984  0.63571  0.80609  1
 Si  Si3  1  0.39984  0.86429  0.30609  1
 Si  Si4  1  0.60016  0.36429  0.19391  1
 Si  Si5  1  0.16656  0.12453  0.68415  1
 Si  Si6  1  0.83344  0.87547  0.31585  1
 Si  Si7  1  0.16656  0.37547  0.18415  1
 Si  Si8  1  0.83344  0.62453  0.81585  1
 Sn  Sn1  1  0.87999  0.94005  0.88258  1
 Sn  Sn2  1  0.12001  0.44005  0.61742  1
 Sn  Sn3  1  0.12001  0.05995  0.11742  1
 Sn  Sn4  1  0.87999  0.55995  0.38258  1
