CIF file written using JARVIS-Tools package.
data_Al3Pt5
_symmetry_space_group_name_H-M  'Pbam'
_cell_length_a       4.00313
_cell_length_b       5.47391
_cell_length_c       10.917
_cell_angle_alpha    90
_cell_angle_beta     90
_cell_angle_gamma    90

_symmetry_Int_Tables_number  55
_chemical_formula_structural  Al3Pt5
_chemical_formula_sum  Al6Pt0
_cell_volume  239.22240395225458
_cell_formula_units_Z  2
loop_
  _symmetry_equiv_pos_site_id
 _symmetry_equiv_pos_as_xyz
 1  'x, y, z'
loop_
 _atom_site_type_symbol
 _atom_site_label
 _atom_site_symmetry_multiplicity
 _atom_site_fract_x
 _atom_site_fract_y
 _atom_site_fract_z
 _atom_site_fract_occupancy
 Al  Al1  1  0.50000  0.17914  0.64014  1
 Al  Al2  1  0.50000  0.82086  0.35986  1
 Al  Al3  1  0.50000  0.67914  0.85986  1
 Al  Al4  1  0.50000  0.32086  0.14014  1
 Al  Al5  1  0.00000  0.50000  0.50000  1
 Al  Al6  1  0.00000  0.00000  0.00000  1
 Pt  Pt1  1  0.50000  0.29243  0.39310  1
 Pt  Pt2  1  0.50000  0.70757  0.60690  1
 Pt  Pt3  1  0.50000  0.79243  0.10690  1
 Pt  Pt4  1  0.50000  0.20757  0.89310  1
 Pt  Pt5  1  0.00000  0.42601  0.72935  1
 Pt  Pt6  1  0.00000  0.57399  0.27065  1
 Pt  Pt7  1  0.00000  0.92601  0.77065  1
 Pt  Pt8  1  0.00000  0.07399  0.22935  1
 Pt  Pt9  1  0.00000  0.50000  0.00000  1
 Pt  Pt10  1  0.00000  0.00000  0.50000  1
