CIF file written using JARVIS-Tools package.
data_Ga2Os
_symmetry_space_group_name_H-M  'Fddd'
_cell_length_a       4.77496
_cell_length_b       4.8249
_cell_length_c       4.98623
_cell_angle_alpha    76.2947
_cell_angle_beta     61.3921
_cell_angle_gamma    60.3419

_symmetry_Int_Tables_number  70
_chemical_formula_structural  Ga2Os
_chemical_formula_sum  Ga4Os2
_cell_volume  87.63951088318504
_cell_formula_units_Z  2
loop_
  _symmetry_equiv_pos_site_id
 _symmetry_equiv_pos_as_xyz
 1  'x, y, z'
loop_
 _atom_site_type_symbol
 _atom_site_label
 _atom_site_symmetry_multiplicity
 _atom_site_fract_x
 _atom_site_fract_y
 _atom_site_fract_z
 _atom_site_fract_occupancy
 Ga  Ga1  1  0.20774  0.58453  0.25000  1
 Ga  Ga2  1  0.54226  0.91547  0.25000  1
 Ga  Ga3  1  0.79226  0.41547  0.75000  1
 Ga  Ga4  1  0.45774  0.08453  0.75000  1
 Os  Os1  1  0.87500  0.25000  0.25000  1
 Os  Os2  1  0.12500  0.75000  0.75000  1
