CIF file written using JARVIS-Tools package.
data_K2Ag2SnSe4
_symmetry_space_group_name_H-M  'P2/c'
_cell_length_a       7.6011
_cell_length_b       5.87462
_cell_length_c       12.3555
_cell_angle_alpha    90
_cell_angle_beta     113.816
_cell_angle_gamma    90

_symmetry_Int_Tables_number  13
_chemical_formula_structural  K2Ag2SnSe4
_chemical_formula_sum  K4Ag4Sn2Se8
_cell_volume  504.73660922241356
_cell_formula_units_Z  2
loop_
  _symmetry_equiv_pos_site_id
 _symmetry_equiv_pos_as_xyz
 1  'x, y, z'
loop_
 _atom_site_type_symbol
 _atom_site_label
 _atom_site_symmetry_multiplicity
 _atom_site_fract_x
 _atom_site_fract_y
 _atom_site_fract_z
 _atom_site_fract_occupancy
 Ag  Ag1  1  0.49922  0.75064  0.96773  1
 Ag  Ag2  1  0.49922  0.24936  0.46773  1
 Ag  Ag3  1  0.50078  0.24936  0.03227  1
 Ag  Ag4  1  0.50078  0.75064  0.53227  1
 K  K1  1  -0.00000  0.52375  0.75000  1
 K  K2  1  0.00000  0.00000  0.00000  1
 K  K3  1  -0.00000  0.47625  0.25000  1
 K  K4  1  -0.00000  0.00000  0.50000  1
 Se  Se1  1  0.26027  0.47578  0.57258  1
 Se  Se2  1  0.25961  0.02856  0.80902  1
 Se  Se3  1  0.73973  0.52422  0.42742  1
 Se  Se4  1  0.73973  0.47578  0.92742  1
 Se  Se5  1  0.25961  0.97144  0.30902  1
 Se  Se6  1  0.74039  0.02856  0.69098  1
 Se  Se7  1  0.74039  0.97144  0.19098  1
 Se  Se8  1  0.26027  0.52422  0.07258  1
 Sn  Sn1  1  0.50000  0.25047  0.75000  1
 Sn  Sn2  1  0.50000  0.74953  0.25000  1
