CIF file written using JARVIS-Tools package.
data_AlTeO4
_symmetry_space_group_name_H-M  'Pbcn'
_cell_length_a       4.56422
_cell_length_b       4.92102
_cell_length_c       11.596
_cell_angle_alpha    90
_cell_angle_beta     90
_cell_angle_gamma    90

_symmetry_Int_Tables_number  60
_chemical_formula_structural  AlTeO4
_chemical_formula_sum  Al4Te4O6
_cell_volume  260.4520634266637
_cell_formula_units_Z  4
loop_
  _symmetry_equiv_pos_site_id
 _symmetry_equiv_pos_as_xyz
 1  'x, y, z'
loop_
 _atom_site_type_symbol
 _atom_site_label
 _atom_site_symmetry_multiplicity
 _atom_site_fract_x
 _atom_site_fract_y
 _atom_site_fract_z
 _atom_site_fract_occupancy
 Al  Al1  1  0.00000  0.75000  0.43590  1
 Al  Al2  1  0.00000  0.25000  0.56410  1
 Al  Al3  1  0.50000  0.25000  0.06410  1
 Al  Al4  1  0.50000  0.75000  0.93590  1
 O  O1  1  0.77582  0.91044  0.31362  1
 O  O2  1  0.77582  0.41044  0.68638  1
 O  O3  1  0.77209  0.42930  0.44907  1
 O  O4  1  0.22418  0.58956  0.31362  1
 O  O5  1  0.72791  0.92930  0.05093  1
 O  O6  1  0.72791  0.42930  0.94907  1
 O  O7  1  0.77209  0.92930  0.55093  1
 O  O8  1  0.72418  0.91044  0.81362  1
 O  O9  1  0.27582  0.08956  0.18638  1
 O  O10  1  0.27209  0.57070  0.05093  1
 O  O11  1  0.72418  0.41044  0.18638  1
 O  O12  1  0.27209  0.07070  0.94907  1
 O  O13  1  0.22791  0.07070  0.44907  1
 O  O14  1  0.22791  0.57070  0.55093  1
 O  O15  1  0.27582  0.58956  0.81362  1
 O  O16  1  0.22418  0.08956  0.68638  1
 Te  Te1  1  0.50000  0.25000  0.33415  1
 Te  Te2  1  0.50000  0.75000  0.66585  1
 Te  Te3  1  0.00000  0.25000  0.83415  1
 Te  Te4  1  0.00000  0.75000  0.16585  1
