CIF file written using JARVIS-Tools package.
data_TlCr3O8
_symmetry_space_group_name_H-M  'C2/m'
_cell_length_a       5.08184
_cell_length_b       5.08185
_cell_length_c       7.78897
_cell_angle_alpha    95.0104
_cell_angle_beta     95.0104
_cell_angle_gamma    65.5197

_symmetry_Int_Tables_number  12
_chemical_formula_structural  TlCr3O8
_chemical_formula_sum  TlCr3O8
_cell_volume  182.07862360469372
_cell_formula_units_Z  1
loop_
  _symmetry_equiv_pos_site_id
 _symmetry_equiv_pos_as_xyz
 1  'x, y, z'
loop_
 _atom_site_type_symbol
 _atom_site_label
 _atom_site_symmetry_multiplicity
 _atom_site_fract_x
 _atom_site_fract_y
 _atom_site_fract_z
 _atom_site_fract_occupancy
 Cr  Cr1  1  0.37771  0.37771  0.70019  1
 Cr  Cr2  1  0.62229  0.62229  0.29981  1
 Cr  Cr3  1  0.00000  -0.00000  0.50000  1
 O  O1  1  0.74005  0.23370  0.67674  1
 O  O2  1  0.76630  0.25995  0.32326  1
 O  O3  1  0.22354  0.22354  0.55094  1
 O  O4  1  0.77646  0.77646  0.44906  1
 O  O5  1  0.32474  0.32474  0.89461  1
 O  O6  1  0.67526  0.67526  0.10539  1
 O  O7  1  0.25995  0.76630  0.32326  1
 O  O8  1  0.23370  0.74005  0.67674  1
 Tl  Tl1  1  0.00000  0.00000  0.00000  1
