CIF file written using JARVIS-Tools package.
data_MnCu2GeS4
_symmetry_space_group_name_H-M  'Pmn2_1'
_cell_length_a       6.2633
_cell_length_b       6.50836
_cell_length_c       7.59449
_cell_angle_alpha    90
_cell_angle_beta     90
_cell_angle_gamma    90

_symmetry_Int_Tables_number  31
_chemical_formula_structural  MnCu2GeS4
_chemical_formula_sum  Mn2Cu4Ge2S8
_cell_volume  309.58035096204947
_cell_formula_units_Z  2
loop_
  _symmetry_equiv_pos_site_id
 _symmetry_equiv_pos_as_xyz
 1  'x, y, z'
loop_
 _atom_site_type_symbol
 _atom_site_label
 _atom_site_symmetry_multiplicity
 _atom_site_fract_x
 _atom_site_fract_y
 _atom_site_fract_z
 _atom_site_fract_occupancy
 Cu  Cu1  1  0.00970  0.67325  0.75023  1
 Cu  Cu2  1  0.00970  0.67325  0.24977  1
 Cu  Cu3  1  0.50970  0.32675  0.25023  1
 Cu  Cu4  1  0.50970  0.32675  0.74977  1
 Ge  Ge1  1  0.50229  0.82871  0.50000  1
 Ge  Ge2  1  0.00229  0.17129  0.00000  1
 Mn  Mn1  1  0.50373  0.83928  0.00000  1
 Mn  Mn2  1  0.00373  0.16072  0.50000  1
 S  S1  1  0.37697  0.66070  0.74261  1
 S  S2  1  0.87697  0.33930  0.75739  1
 S  S3  1  0.87697  0.33930  0.24261  1
 S  S4  1  0.37697  0.66070  0.25739  1
 S  S5  1  0.36702  0.18074  0.00000  1
 S  S6  1  0.88503  0.84024  0.00000  1
 S  S7  1  0.86702  0.81926  0.50000  1
 S  S8  1  0.38503  0.15976  0.50000  1
