CIF file written using JARVIS-Tools package.
data_LiMoIO6
_symmetry_space_group_name_H-M  'P2_1'
_cell_length_a       5.45515
_cell_length_b       5.31252
_cell_length_c       8.96788
_cell_angle_alpha    90
_cell_angle_beta     106.974
_cell_angle_gamma    90

_symmetry_Int_Tables_number  4
_chemical_formula_structural  LiMoIO6
_chemical_formula_sum  Li2Mo2I2O2
_cell_volume  248.57210312168627
_cell_formula_units_Z  2
loop_
  _symmetry_equiv_pos_site_id
 _symmetry_equiv_pos_as_xyz
 1  'x, y, z'
loop_
 _atom_site_type_symbol
 _atom_site_label
 _atom_site_symmetry_multiplicity
 _atom_site_fract_x
 _atom_site_fract_y
 _atom_site_fract_z
 _atom_site_fract_occupancy
 I  I1  1  0.37209  0.62118  0.33731  1
 I  I2  1  0.62791  0.12118  0.66269  1
 Li  Li1  1  0.99237  0.68548  0.58245  1
 Li  Li2  1  0.00763  0.18548  0.41755  1
 Mo  Mo1  1  0.23584  0.38639  0.96542  1
 Mo  Mo2  1  0.76416  0.88639  0.03458  1
 O  O1  1  0.35199  0.01582  0.50425  1
 O  O2  1  0.14280  0.51955  0.78102  1
 O  O3  1  0.48764  0.17763  0.95490  1
 O  O4  1  0.88774  0.03465  0.58358  1
 O  O5  1  0.35615  0.33617  0.21406  1
 O  O6  1  0.64801  0.51582  0.49575  1
 O  O7  1  0.64385  0.83617  0.78594  1
 O  O8  1  0.97830  0.16702  0.95258  1
 O  O9  1  0.51236  0.67763  0.04510  1
 O  O10  1  0.11226  0.53465  0.41642  1
 O  O11  1  0.02170  0.66702  0.04742  1
 O  O12  1  0.85720  0.01955  0.21898  1
