CIF file written using JARVIS-Tools package.
data_NaNdTiO4
_symmetry_space_group_name_H-M  'P4/nmm'
_cell_length_a       3.73875
_cell_length_b       3.73875
_cell_length_c       13.1136
_cell_angle_alpha    90
_cell_angle_beta     90
_cell_angle_gamma    90

_symmetry_Int_Tables_number  129
_chemical_formula_structural  NaNdTiO4
_chemical_formula_sum  Na2Nd2Ti2O8
_cell_volume  183.3056250918191
_cell_formula_units_Z  2
loop_
  _symmetry_equiv_pos_site_id
 _symmetry_equiv_pos_as_xyz
 1  'x, y, z'
loop_
 _atom_site_type_symbol
 _atom_site_label
 _atom_site_symmetry_multiplicity
 _atom_site_fract_x
 _atom_site_fract_y
 _atom_site_fract_z
 _atom_site_fract_occupancy
 Na  Na1  1  0.00000  0.50000  0.58269  1
 Na  Na2  1  0.50000  0.00000  0.41731  1
 Nd  Nd1  1  0.50000  0.00000  0.10826  1
 Nd  Nd2  1  0.00000  0.50000  0.89174  1
 O  O1  1  0.50000  0.00000  0.93013  1
 O  O2  1  0.00000  0.50000  0.06987  1
 O  O3  1  0.50000  0.00000  0.59260  1
 O  O4  1  0.00000  0.50000  0.40740  1
 O  O5  1  0.50000  0.50000  0.23454  1
 O  O6  1  0.00000  0.00000  0.23454  1
 O  O7  1  0.50000  0.50000  0.76546  1
 O  O8  1  0.00000  0.00000  0.76546  1
 Ti  Ti1  1  0.00000  0.50000  0.27264  1
 Ti  Ti2  1  0.50000  0.00000  0.72736  1
