CIF file written using JARVIS-Tools package.
data_BaPbO3
_symmetry_space_group_name_H-M  'I4/mcm'
_cell_length_a       6.07452
_cell_length_b       6.07452
_cell_length_c       6.16428
_cell_angle_alpha    119.519
_cell_angle_beta     119.519
_cell_angle_gamma    90

_symmetry_Int_Tables_number  140
_chemical_formula_structural  BaPbO3
_chemical_formula_sum  Ba2Pb2O6
_cell_volume  163.1469199309848
_cell_formula_units_Z  2
loop_
  _symmetry_equiv_pos_site_id
 _symmetry_equiv_pos_as_xyz
 1  'x, y, z'
loop_
 _atom_site_type_symbol
 _atom_site_label
 _atom_site_symmetry_multiplicity
 _atom_site_fract_x
 _atom_site_fract_y
 _atom_site_fract_z
 _atom_site_fract_occupancy
 Ba  Ba1  1  0.25000  0.75000  0.50000  1
 Ba  Ba2  1  0.75000  0.25000  0.50000  1
 O  O1  1  0.69754  0.19754  -0.00000  1
 O  O2  1  0.80246  0.69754  -0.00000  1
 O  O3  1  0.19754  0.30246  0.00000  1
 O  O4  1  0.30246  0.80246  0.00000  1
 O  O5  1  0.25000  0.25000  0.50000  1
 O  O6  1  0.75000  0.75000  0.50000  1
 Pb  Pb1  1  0.50000  0.50000  -0.00000  1
 Pb  Pb2  1  0.00000  0.00000  0.00000  1
