CIF file written using JARVIS-Tools package.
data_ErCu2O4
_symmetry_space_group_name_H-M  'I4_1/a'
_cell_length_a       5.63272
_cell_length_b       5.63254
_cell_length_c       6.24044
_cell_angle_alpha    116.825
_cell_angle_beta     116.825
_cell_angle_gamma    90.0045

_symmetry_Int_Tables_number  88
_chemical_formula_structural  ErCu2O4
_chemical_formula_sum  Er2Cu4O8
_cell_volume  152.42270131136272
_cell_formula_units_Z  2
loop_
  _symmetry_equiv_pos_site_id
 _symmetry_equiv_pos_as_xyz
 1  'x, y, z'
loop_
 _atom_site_type_symbol
 _atom_site_label
 _atom_site_symmetry_multiplicity
 _atom_site_fract_x
 _atom_site_fract_y
 _atom_site_fract_z
 _atom_site_fract_occupancy
 Cu  Cu1  1  0.50000  -0.00000  0.00000  1
 Cu  Cu2  1  0.50000  0.50000  0.00000  1
 Cu  Cu3  1  0.00000  0.50000  0.50000  1
 Cu  Cu4  1  0.50000  0.50000  0.50000  1
 Er  Er1  1  0.87500  0.12500  0.75000  1
 Er  Er2  1  0.12500  0.87500  0.25000  1
 O  O1  1  0.72319  0.52944  0.85562  1
 O  O2  1  0.13243  0.82618  0.85562  1
 O  O3  1  0.27681  0.47056  0.14438  1
 O  O4  1  0.86757  0.17382  0.14438  1
 O  O5  1  0.52947  0.13246  0.35562  1
 O  O6  1  0.82615  0.72316  0.35562  1
 O  O7  1  0.17385  0.27684  0.64438  1
 O  O8  1  0.47053  0.86754  0.64438  1
