CIF file written using JARVIS-Tools package.
data_CaPr2S4
_symmetry_space_group_name_H-M  'I-42d'
_cell_length_a       7.45634
_cell_length_b       7.45635
_cell_length_c       7.45634
_cell_angle_alpha    109.692
_cell_angle_beta     109.692
_cell_angle_gamma    109.029

_symmetry_Int_Tables_number  122
_chemical_formula_structural  CaPr2S4
_chemical_formula_sum  Ca2Pr4S8
_cell_volume  319.1077622032423
_cell_formula_units_Z  2
loop_
  _symmetry_equiv_pos_site_id
 _symmetry_equiv_pos_as_xyz
 1  'x, y, z'
loop_
 _atom_site_type_symbol
 _atom_site_label
 _atom_site_symmetry_multiplicity
 _atom_site_fract_x
 _atom_site_fract_y
 _atom_site_fract_z
 _atom_site_fract_occupancy
 Ca  Ca1  1  0.62500  0.37500  0.25000  1
 Ca  Ca2  1  0.87500  0.12500  0.75000  1
 Pr  Pr1  1  0.12162  0.75000  0.87162  1
 Pr  Pr2  1  0.25000  0.62162  0.37162  1
 Pr  Pr3  1  0.37838  0.25000  0.62838  1
 Pr  Pr4  1  0.75000  0.87838  0.12838  1
 S  S1  1  0.00145  0.85695  0.50296  1
 S  S2  1  0.49855  0.00152  0.85551  1
 S  S3  1  0.14305  0.14601  0.14449  1
 S  S4  1  0.35695  0.50145  0.00296  1
 S  S5  1  0.64601  0.64305  0.64449  1
 S  S6  1  0.50152  0.99855  0.35551  1
 S  S7  1  0.85399  0.49848  0.99704  1
 S  S8  1  -0.00152  0.35399  0.49704  1
