CIF file written using JARVIS-Tools package.
data_Tb4C5
_symmetry_space_group_name_H-M  'Pbam'
_cell_length_a       3.68512
_cell_length_b       6.61971
_cell_length_c       12.0149
_cell_angle_alpha    90
_cell_angle_beta     90
_cell_angle_gamma    90

_symmetry_Int_Tables_number  55
_chemical_formula_structural  Tb4C5
_chemical_formula_sum  Tb8C0
_cell_volume  293.0965492895225
_cell_formula_units_Z  2
loop_
  _symmetry_equiv_pos_site_id
 _symmetry_equiv_pos_as_xyz
 1  'x, y, z'
loop_
 _atom_site_type_symbol
 _atom_site_label
 _atom_site_symmetry_multiplicity
 _atom_site_fract_x
 _atom_site_fract_y
 _atom_site_fract_z
 _atom_site_fract_occupancy
 C  C1  1  0.00000  0.59682  0.15601  1
 C  C2  1  0.00000  0.09682  0.34399  1
 C  C3  1  0.50000  0.00000  0.00000  1
 C  C4  1  0.00000  0.36211  0.73621  1
 C  C5  1  0.50000  0.50000  0.50000  1
 C  C6  1  0.00000  0.86211  0.76379  1
 C  C7  1  0.00000  0.13789  0.23621  1
 C  C8  1  0.00000  0.40318  0.84399  1
 C  C9  1  0.00000  0.90318  0.65601  1
 C  C10  1  0.00000  0.63789  0.26379  1
 Tb  Tb1  1  0.50000  0.39201  0.30399  1
 Tb  Tb2  1  0.50000  0.60799  0.69601  1
 Tb  Tb3  1  0.50000  0.89201  0.19601  1
 Tb  Tb4  1  0.50000  0.10799  0.80399  1
 Tb  Tb5  1  0.00000  0.24541  0.04250  1
 Tb  Tb6  1  0.00000  0.75459  0.95750  1
 Tb  Tb7  1  0.00000  0.74541  0.45750  1
 Tb  Tb8  1  0.00000  0.25459  0.54250  1
