CIF file written using JARVIS-Tools package.
data_LuMn2Ge2
_symmetry_space_group_name_H-M  'I4/mmm'
_cell_length_a       3.8849
_cell_length_b       3.88491
_cell_length_c       6.03627
_cell_angle_alpha    108.772
_cell_angle_beta     108.772
_cell_angle_gamma    90.0001

_symmetry_Int_Tables_number  139
_chemical_formula_structural  LuMn2Ge2
_chemical_formula_sum  LuMn2Ge2
_cell_volume  81.12182334075499
_cell_formula_units_Z  1
loop_
  _symmetry_equiv_pos_site_id
 _symmetry_equiv_pos_as_xyz
 1  'x, y, z'
loop_
 _atom_site_type_symbol
 _atom_site_label
 _atom_site_symmetry_multiplicity
 _atom_site_fract_x
 _atom_site_fract_y
 _atom_site_fract_z
 _atom_site_fract_occupancy
 Ge  Ge1  1  0.61754  0.61754  0.23509  1
 Ge  Ge2  1  0.38246  0.38246  0.76491  1
 Lu  Lu1  1  0.00000  0.00000  0.00000  1
 Mn  Mn1  1  0.25000  0.75000  0.50000  1
 Mn  Mn2  1  0.75000  0.25000  0.50000  1
