CIF file written using JARVIS-Tools package.
data_NbRh
_symmetry_space_group_name_H-M  'Pmma'
_cell_length_a       2.84514
_cell_length_b       4.5831
_cell_length_c       4.93072
_cell_angle_alpha    90
_cell_angle_beta     90
_cell_angle_gamma    90

_symmetry_Int_Tables_number  51
_chemical_formula_structural  NbRh
_chemical_formula_sum  Nb2Rh2
_cell_volume  64.29459936701004
_cell_formula_units_Z  2
loop_
  _symmetry_equiv_pos_site_id
 _symmetry_equiv_pos_as_xyz
 1  'x, y, z'
loop_
 _atom_site_type_symbol
 _atom_site_label
 _atom_site_symmetry_multiplicity
 _atom_site_fract_x
 _atom_site_fract_y
 _atom_site_fract_z
 _atom_site_fract_occupancy
 Nb  Nb1  1  0.00000  0.75000  0.19510  1
 Nb  Nb2  1  0.00000  0.25000  0.80490  1
 Rh  Rh1  1  0.50000  0.75000  0.68700  1
 Rh  Rh2  1  0.50000  0.25000  0.31300  1
