data_image0
_chemical_formula_structural       AgNiTe2
_chemical_formula_sum              "Ag1 Ni1 Te2"
_cell_length_a       3.95107
_cell_length_b       3.95107
_cell_length_c       7.52356
_cell_angle_alpha    105.223
_cell_angle_beta     74.7768
_cell_angle_gamma    120

_space_group_name_H-M_alt    "P 1"
_space_group_IT_number       1

loop_
  _space_group_symop_operation_xyz
  'x, y, z'

loop_
  _atom_site_type_symbol
  _atom_site_label
  _atom_site_symmetry_multiplicity
  _atom_site_fract_x
  _atom_site_fract_y
  _atom_site_fract_z
  _atom_site_occupancy
  Ag  Ag1       1.0  0.85400  0.14600  0.43700  1.0000
  Ni  Ni1       1.0  0.00221  0.99800  0.99300  1.0000
  Te  Te1       1.0  0.27200  0.72800  0.18500  1.0000
  Te  Te2       1.0  0.72800  0.27200  0.81600  1.0000
