CIF file written using JARVIS-Tools package.
data_Sb7Mo3
_symmetry_space_group_name_H-M  'Im-3m'
_cell_length_a       8.3942
_cell_length_b       8.39421
_cell_length_c       8.39421
_cell_angle_alpha    109.471
_cell_angle_beta     109.471
_cell_angle_gamma    109.471

_symmetry_Int_Tables_number  229
_chemical_formula_structural  Sb7Mo3
_chemical_formula_sum  Sb4Mo6
_cell_volume  455.32013220264446
_cell_formula_units_Z  2
loop_
  _symmetry_equiv_pos_site_id
 _symmetry_equiv_pos_as_xyz
 1  'x, y, z'
loop_
 _atom_site_type_symbol
 _atom_site_label
 _atom_site_symmetry_multiplicity
 _atom_site_fract_x
 _atom_site_fract_y
 _atom_site_fract_z
 _atom_site_fract_occupancy
 Mo  Mo1  1  0.00000  0.34279  0.34279  1
 Mo  Mo2  1  0.65721  -0.00000  0.65721  1
 Mo  Mo3  1  0.65721  0.65721  0.00000  1
 Mo  Mo4  1  0.34279  0.34279  -0.00000  1
 Mo  Mo5  1  -0.00000  0.65721  0.65721  1
 Mo  Mo6  1  0.34279  0.00000  0.34279  1
 Sb  Sb1  1  0.67694  0.00000  0.00000  1
 Sb  Sb2  1  0.50000  0.75000  0.25000  1
 Sb  Sb3  1  0.75000  0.50000  0.25000  1
 Sb  Sb4  1  0.25000  0.50000  0.75000  1
 Sb  Sb5  1  0.75000  0.25000  0.50000  1
 Sb  Sb6  1  0.50000  0.25000  0.75000  1
 Sb  Sb7  1  0.32306  0.32306  0.32306  1
 Sb  Sb8  1  0.32306  -0.00000  -0.00000  1
 Sb  Sb9  1  -0.00000  0.32306  -0.00000  1
 Sb  Sb10  1  0.00000  0.00000  0.32306  1
 Sb  Sb11  1  0.00000  0.67694  0.00000  1
 Sb  Sb12  1  -0.00000  -0.00000  0.67694  1
 Sb  Sb13  1  0.25000  0.75000  0.50000  1
 Sb  Sb14  1  0.67694  0.67694  0.67694  1
