CIF file written using JARVIS-Tools package.
data_NdPd2O4
_symmetry_space_group_name_H-M  'I4_1/a'
_cell_length_a       5.90674
_cell_length_b       5.90674
_cell_length_c       6.60568
_cell_angle_alpha    116.558
_cell_angle_beta     116.558
_cell_angle_gamma    89.9999

_symmetry_Int_Tables_number  88
_chemical_formula_structural  NdPd2O4
_chemical_formula_sum  Nd2Pd4O8
_cell_volume  178.55185780082394
_cell_formula_units_Z  2
loop_
  _symmetry_equiv_pos_site_id
 _symmetry_equiv_pos_as_xyz
 1  'x, y, z'
loop_
 _atom_site_type_symbol
 _atom_site_label
 _atom_site_symmetry_multiplicity
 _atom_site_fract_x
 _atom_site_fract_y
 _atom_site_fract_z
 _atom_site_fract_occupancy
 Nd  Nd1  1  0.87500  0.62500  0.75000  1
 Nd  Nd2  1  0.12500  0.37500  0.25000  1
 O  O1  1  0.82630  0.62597  0.35175  1
 O  O2  1  0.72578  0.32630  0.85175  1
 O  O3  1  0.12597  0.02546  0.85175  1
 O  O4  1  0.52546  0.22578  0.35175  1
 O  O5  1  0.17370  0.37403  0.64825  1
 O  O6  1  0.27422  0.67370  0.14825  1
 O  O7  1  0.47454  0.77422  0.64825  1
 O  O8  1  0.87403  0.97454  0.14825  1
 Pd  Pd1  1  0.50000  -0.00000  0.00000  1
 Pd  Pd2  1  0.00000  0.00000  0.50000  1
 Pd  Pd3  1  0.50000  0.00000  0.50000  1
 Pd  Pd4  1  0.50000  0.50000  0.00000  1
