CIF file written using JARVIS-Tools package.
data_PCl2OF
_symmetry_space_group_name_H-M  'P2_1/c'
_cell_length_a       9.11433
_cell_length_b       5.49143
_cell_length_c       9.32241
_cell_angle_alpha    90
_cell_angle_beta     115.885
_cell_angle_gamma    90

_symmetry_Int_Tables_number  14
_chemical_formula_structural  PCl2OF
_chemical_formula_sum  P4Cl8O4F4
_cell_volume  419.7808464449311
_cell_formula_units_Z  4
loop_
  _symmetry_equiv_pos_site_id
 _symmetry_equiv_pos_as_xyz
 1  'x, y, z'
loop_
 _atom_site_type_symbol
 _atom_site_label
 _atom_site_symmetry_multiplicity
 _atom_site_fract_x
 _atom_site_fract_y
 _atom_site_fract_z
 _atom_site_fract_occupancy
 Cl  Cl1  1  0.10612  0.68530  0.42759  1
 Cl  Cl2  1  0.38060  0.40057  0.19712  1
 Cl  Cl3  1  0.60612  0.81470  0.42759  1
 Cl  Cl4  1  0.89388  0.31470  0.57241  1
 Cl  Cl5  1  0.88060  0.09943  0.19712  1
 Cl  Cl6  1  0.39388  0.18530  0.57241  1
 Cl  Cl7  1  0.11940  0.90057  0.80288  1
 Cl  Cl8  1  0.61940  0.59943  0.80288  1
 F  F1  1  0.53826  0.16071  0.90391  1
 F  F2  1  0.46174  0.83929  0.09609  1
 F  F3  1  0.03826  0.33929  0.90391  1
 F  F4  1  0.96174  0.66071  0.09609  1
 O  O1  1  0.80422  0.03804  0.79131  1
 O  O2  1  0.69578  0.53804  0.20869  1
 O  O3  1  0.30422  0.46196  0.79131  1
 O  O4  1  0.19578  0.96196  0.20869  1
 P  P1  1  0.05403  0.86079  0.22312  1
 P  P2  1  0.94597  0.13921  0.77688  1
 P  P3  1  0.55403  0.63921  0.22312  1
 P  P4  1  0.44597  0.36079  0.77688  1
