CIF file written using JARVIS-Tools package.
data_Cu4SnP10
_symmetry_space_group_name_H-M  'R3m'
_cell_length_a       7.34419
_cell_length_b       7.35254
_cell_length_c       7.35255
_cell_angle_alpha    60
_cell_angle_beta     59.9624
_cell_angle_gamma    59.9624

_symmetry_Int_Tables_number  160
_chemical_formula_structural  Cu4SnP10
_chemical_formula_sum  Cu4SnP0
_cell_volume  280.580237041963
_cell_formula_units_Z  1
loop_
  _symmetry_equiv_pos_site_id
 _symmetry_equiv_pos_as_xyz
 1  'x, y, z'
loop_
 _atom_site_type_symbol
 _atom_site_label
 _atom_site_symmetry_multiplicity
 _atom_site_fract_x
 _atom_site_fract_y
 _atom_site_fract_z
 _atom_site_fract_occupancy
 Cu  Cu1  1  0.00003  -0.00001  -0.00001  1
 Cu  Cu2  1  0.38003  0.37064  0.37064  1
 Cu  Cu3  1  0.38003  0.87870  0.37064  1
 Cu  Cu4  1  0.38003  0.37064  0.87870  1
 P  P1  1  0.50439  0.50635  0.99463  1
 P  P2  1  0.50439  0.99463  0.50635  1
 P  P3  1  0.38108  0.87297  0.87297  1
 P  P4  1  0.87219  0.38054  0.87363  1
 P  P5  1  0.00105  0.50403  0.50403  1
 P  P6  1  0.50439  0.99463  0.99463  1
 P  P7  1  0.87219  0.87363  0.38054  1
 P  P8  1  0.87219  0.87363  0.87363  1
 P  P9  1  0.00105  0.50403  0.99089  1
 P  P10  1  0.00105  0.99089  0.50403  1
 Sn  Sn1  1  0.71180  0.42940  0.42940  1
