CIF file written using JARVIS-Tools package.
data_MoAs2
_symmetry_space_group_name_H-M  'C2/m'
_cell_length_a       3.35481
_cell_length_b       4.89546
_cell_length_c       7.02756
_cell_angle_alpha    79.1037
_cell_angle_beta     76.1907
_cell_angle_gamma    69.9619

_symmetry_Int_Tables_number  12
_chemical_formula_structural  MoAs2
_chemical_formula_sum  Mo2As4
_cell_volume  104.56525691940746
_cell_formula_units_Z  2
loop_
  _symmetry_equiv_pos_site_id
 _symmetry_equiv_pos_as_xyz
 1  'x, y, z'
loop_
 _atom_site_type_symbol
 _atom_site_label
 _atom_site_symmetry_multiplicity
 _atom_site_fract_x
 _atom_site_fract_y
 _atom_site_fract_z
 _atom_site_fract_occupancy
 As  As1  1  0.12635  0.74063  0.96666  1
 As  As2  1  0.83365  0.25937  0.03334  1
 As  As3  1  0.38374  0.79975  0.39277  1
 As  As4  1  0.57626  0.20025  0.60723  1
 Mo  Mo1  1  0.82683  0.60547  0.70087  1
 Mo  Mo2  1  0.13317  0.39453  0.29913  1
