CIF file written using JARVIS-Tools package.
data_CuMoO4
_symmetry_space_group_name_H-M  'P-1'
_cell_length_a       4.71409
_cell_length_b       4.90468
_cell_length_c       5.93277
_cell_angle_alpha    88.0326
_cell_angle_beta     81.4188
_cell_angle_gamma    86.9877

_symmetry_Int_Tables_number  2
_chemical_formula_structural  CuMoO4
_chemical_formula_sum  Cu2Mo2O8
_cell_volume  135.40056843990618
_cell_formula_units_Z  2
loop_
  _symmetry_equiv_pos_site_id
 _symmetry_equiv_pos_as_xyz
 1  'x, y, z'
loop_
 _atom_site_type_symbol
 _atom_site_label
 _atom_site_symmetry_multiplicity
 _atom_site_fract_x
 _atom_site_fract_y
 _atom_site_fract_z
 _atom_site_fract_occupancy
 Cu  Cu1  1  0.49302  0.74961  0.15807  1
 Cu  Cu2  1  0.50698  0.25039  0.84193  1
 Mo  Mo1  1  0.96969  0.25439  0.32557  1
 Mo  Mo2  1  0.03031  0.74561  0.67443  1
 O  O1  1  0.73064  0.90415  0.87908  1
 O  O2  1  0.78698  0.42709  0.62005  1
 O  O3  1  0.75082  0.42970  0.14422  1
 O  O4  1  0.24918  0.57030  0.85578  1
 O  O5  1  0.22124  0.04753  0.59112  1
 O  O6  1  0.77876  0.95247  0.40888  1
 O  O7  1  0.21302  0.57291  0.37995  1
 O  O8  1  0.26936  0.09585  0.12092  1
