CIF file written using JARVIS-Tools package.
data_Ca3Sn2S7
_symmetry_space_group_name_H-M  'Pbam'
_cell_length_a       3.85404
_cell_length_b       11.2985
_cell_length_c       12.4791
_cell_angle_alpha    90
_cell_angle_beta     90
_cell_angle_gamma    90

_symmetry_Int_Tables_number  55
_chemical_formula_structural  Ca3Sn2S7
_chemical_formula_sum  Ca6Sn4S4
_cell_volume  543.4019937540486
_cell_formula_units_Z  2
loop_
  _symmetry_equiv_pos_site_id
 _symmetry_equiv_pos_as_xyz
 1  'x, y, z'
loop_
 _atom_site_type_symbol
 _atom_site_label
 _atom_site_symmetry_multiplicity
 _atom_site_fract_x
 _atom_site_fract_y
 _atom_site_fract_z
 _atom_site_fract_occupancy
 Ca  Ca1  1  0.00000  0.50000  0.00000  1
 Ca  Ca2  1  0.00000  0.00000  0.50000  1
 Ca  Ca3  1  0.00000  0.11361  0.15183  1
 Ca  Ca4  1  0.00000  0.88639  0.84817  1
 Ca  Ca5  1  0.00000  0.61361  0.34817  1
 Ca  Ca6  1  0.00000  0.38639  0.65183  1
 S  S1  1  0.00000  0.14187  0.78712  1
 S  S2  1  0.50000  0.50000  0.50000  1
 S  S3  1  0.00000  0.64187  0.71288  1
 S  S4  1  0.00000  0.35813  0.28712  1
 S  S5  1  0.50000  0.20357  0.57133  1
 S  S6  1  0.00000  0.85813  0.21288  1
 S  S7  1  0.50000  0.70357  0.92867  1
 S  S8  1  0.50000  0.29643  0.07133  1
 S  S9  1  0.50000  0.92106  0.67845  1
 S  S10  1  0.50000  0.57894  0.17845  1
 S  S11  1  0.50000  0.79643  0.42867  1
 S  S12  1  0.50000  0.07894  0.32155  1
 S  S13  1  0.50000  0.42106  0.82155  1
 S  S14  1  0.50000  0.00000  0.00000  1
 Sn  Sn1  1  0.50000  0.28492  0.39266  1
 Sn  Sn2  1  0.50000  0.71508  0.60734  1
 Sn  Sn3  1  0.50000  0.78492  0.10734  1
 Sn  Sn4  1  0.50000  0.21508  0.89266  1
