CIF file written using JARVIS-Tools package.
data_Dy2Ge2O7
_symmetry_space_group_name_H-M  'P2_1/c'
_cell_length_a       4.98581
_cell_length_b       11.1085
_cell_length_c       5.6677
_cell_angle_alpha    90
_cell_angle_beta     95.5533
_cell_angle_gamma    90

_symmetry_Int_Tables_number  14
_chemical_formula_structural  Dy2Ge2O7
_chemical_formula_sum  Dy4Ge4O4
_cell_volume  312.43217245302776
_cell_formula_units_Z  2
loop_
  _symmetry_equiv_pos_site_id
 _symmetry_equiv_pos_as_xyz
 1  'x, y, z'
loop_
 _atom_site_type_symbol
 _atom_site_label
 _atom_site_symmetry_multiplicity
 _atom_site_fract_x
 _atom_site_fract_y
 _atom_site_fract_z
 _atom_site_fract_occupancy
 Dy  Dy1  1  0.10885  0.14859  0.89820  1
 Dy  Dy2  1  0.10885  0.35141  0.39820  1
 Dy  Dy3  1  0.89115  0.64859  0.60180  1
 Dy  Dy4  1  0.89115  0.85141  0.10180  1
 Ge  Ge1  1  0.36195  0.88019  0.65501  1
 Ge  Ge2  1  0.36195  0.61981  0.15501  1
 Ge  Ge3  1  0.63805  0.38019  0.84499  1
 Ge  Ge4  1  0.63805  0.11981  0.34499  1
 O  O1  1  0.11868  0.69234  0.95583  1
 O  O2  1  0.11868  0.80766  0.45583  1
 O  O3  1  0.88132  0.19234  0.54417  1
 O  O4  1  0.19837  0.55032  0.38553  1
 O  O5  1  0.36804  0.28931  0.72458  1
 O  O6  1  0.19837  0.94968  0.88553  1
 O  O7  1  0.63196  0.71069  0.27542  1
 O  O8  1  0.50000  0.50000  0.00000  1
 O  O9  1  0.63196  0.78931  0.77542  1
 O  O10  1  0.36804  0.21069  0.22458  1
 O  O11  1  0.80163  0.44968  0.61447  1
 O  O12  1  0.80163  0.05032  0.11447  1
 O  O13  1  0.50000  0.00000  0.50000  1
 O  O14  1  0.88132  0.30766  0.04417  1
