CIF file written using JARVIS-Tools package.
data_CaAu2F12
_symmetry_space_group_name_H-M  'P-4m2'
_cell_length_a       6.07044
_cell_length_b       6.07044
_cell_length_c       6.61907
_cell_angle_alpha    90
_cell_angle_beta     90
_cell_angle_gamma    90

_symmetry_Int_Tables_number  115
_chemical_formula_structural  CaAu2F12
_chemical_formula_sum  CaAu2F2
_cell_volume  243.91435450293966
_cell_formula_units_Z  1
loop_
  _symmetry_equiv_pos_site_id
 _symmetry_equiv_pos_as_xyz
 1  'x, y, z'
loop_
 _atom_site_type_symbol
 _atom_site_label
 _atom_site_symmetry_multiplicity
 _atom_site_fract_x
 _atom_site_fract_y
 _atom_site_fract_z
 _atom_site_fract_occupancy
 Au  Au1  1  0.50000  0.00000  0.23942  1
 Au  Au2  1  0.00000  0.50000  0.76058  1
 Ca  Ca1  1  0.00000  0.00000  0.00000  1
 F  F1  1  0.00000  0.50000  0.05372  1
 F  F2  1  0.50000  0.00000  0.94628  1
 F  F3  1  0.00000  0.50000  0.47067  1
 F  F4  1  0.25606  0.20741  0.22744  1
 F  F5  1  0.20741  0.74394  0.77256  1
 F  F6  1  0.79259  0.25606  0.77256  1
 F  F7  1  0.74394  0.79259  0.22744  1
 F  F8  1  0.74394  0.20741  0.22744  1
 F  F9  1  0.20741  0.25606  0.77256  1
 F  F10  1  0.79259  0.74394  0.77256  1
 F  F11  1  0.25606  0.79259  0.22744  1
 F  F12  1  0.50000  0.00000  0.52933  1
