CIF file written using JARVIS-Tools package.
data_SiIr3
_symmetry_space_group_name_H-M  'I4/mcm'
_cell_length_a       5.30322
_cell_length_b       5.30323
_cell_length_c       5.50514
_cell_angle_alpha    118.794
_cell_angle_beta     118.794
_cell_angle_gamma    90

_symmetry_Int_Tables_number  140
_chemical_formula_structural  SiIr3
_chemical_formula_sum  Si2Ir6
_cell_volume  113.35304820838854
_cell_formula_units_Z  2
loop_
  _symmetry_equiv_pos_site_id
 _symmetry_equiv_pos_as_xyz
 1  'x, y, z'
loop_
 _atom_site_type_symbol
 _atom_site_label
 _atom_site_symmetry_multiplicity
 _atom_site_fract_x
 _atom_site_fract_y
 _atom_site_fract_z
 _atom_site_fract_occupancy
 Ir  Ir1  1  0.25000  0.25000  0.50000  1
 Ir  Ir2  1  0.75000  0.75000  0.50000  1
 Ir  Ir3  1  0.18368  0.68368  -0.00000  1
 Ir  Ir4  1  0.31632  0.18368  -0.00000  1
 Ir  Ir5  1  0.68368  0.81632  0.00000  1
 Ir  Ir6  1  0.81632  0.31632  0.00000  1
 Si  Si1  1  0.25000  0.75000  0.50000  1
 Si  Si2  1  0.75000  0.25000  0.50000  1
