CIF file written using JARVIS-Tools package.
data_SmBiRh
_symmetry_space_group_name_H-M  'Pnma'
_cell_length_a       4.75338
_cell_length_b       7.35985
_cell_length_c       8.06376
_cell_angle_alpha    90
_cell_angle_beta     90
_cell_angle_gamma    90

_symmetry_Int_Tables_number  62
_chemical_formula_structural  SmBiRh
_chemical_formula_sum  Sm4Bi4Rh4
_cell_volume  282.10407028519154
_cell_formula_units_Z  4
loop_
  _symmetry_equiv_pos_site_id
 _symmetry_equiv_pos_as_xyz
 1  'x, y, z'
loop_
 _atom_site_type_symbol
 _atom_site_label
 _atom_site_symmetry_multiplicity
 _atom_site_fract_x
 _atom_site_fract_y
 _atom_site_fract_z
 _atom_site_fract_occupancy
 Bi  Bi1  1  0.75000  0.81797  0.09061  1
 Bi  Bi2  1  0.25000  0.68203  0.59061  1
 Bi  Bi3  1  0.25000  0.18203  0.90939  1
 Bi  Bi4  1  0.75000  0.31797  0.40939  1
 Rh  Rh1  1  0.75000  0.21461  0.07912  1
 Rh  Rh2  1  0.75000  0.71461  0.42088  1
 Rh  Rh3  1  0.25000  0.28539  0.57912  1
 Rh  Rh4  1  0.25000  0.78539  0.92088  1
 Sm  Sm1  1  0.25000  0.01213  0.30547  1
 Sm  Sm2  1  0.75000  0.98787  0.69453  1
 Sm  Sm3  1  0.75000  0.48787  0.80547  1
 Sm  Sm4  1  0.25000  0.51213  0.19453  1
