CIF file written using JARVIS-Tools package.
data_K3ScSi2O7
_symmetry_space_group_name_H-M  'P6_3/mmc'
_cell_length_a       5.65256
_cell_length_b       5.65256
_cell_length_c       13.7932
_cell_angle_alpha    90
_cell_angle_beta     90
_cell_angle_gamma    120

_symmetry_Int_Tables_number  194
_chemical_formula_structural  K3ScSi2O7
_chemical_formula_sum  K6Sc2Si4O4
_cell_volume  381.6688002218563
_cell_formula_units_Z  2
loop_
  _symmetry_equiv_pos_site_id
 _symmetry_equiv_pos_as_xyz
 1  'x, y, z'
loop_
 _atom_site_type_symbol
 _atom_site_label
 _atom_site_symmetry_multiplicity
 _atom_site_fract_x
 _atom_site_fract_y
 _atom_site_fract_z
 _atom_site_fract_occupancy
 K  K1  1  0.33333  0.66667  0.59279  1
 K  K2  1  0.00000  0.00000  0.75000  1
 K  K3  1  0.66667  0.33333  0.40721  1
 K  K4  1  0.33333  0.66667  0.90721  1
 K  K5  1  0.66667  0.33333  0.09279  1
 K  K6  1  0.00000  0.00000  0.25000  1
 O  O1  1  0.66667  0.33333  0.75000  1
 O  O2  1  0.82555  0.65110  0.90792  1
 O  O3  1  0.17445  0.82555  0.40792  1
 O  O4  1  0.17445  0.34890  0.09208  1
 O  O5  1  0.65110  0.82555  0.09208  1
 O  O6  1  0.34890  0.17445  0.59208  1
 O  O7  1  0.34890  0.17445  0.90792  1
 O  O8  1  0.82555  0.65110  0.59208  1
 O  O9  1  0.17445  0.82555  0.09208  1
 O  O10  1  0.17445  0.34890  0.40792  1
 O  O11  1  0.82555  0.17445  0.59208  1
 O  O12  1  0.65110  0.82555  0.40792  1
 O  O13  1  0.82555  0.17445  0.90792  1
 O  O14  1  0.33333  0.66667  0.25000  1
 Sc  Sc1  1  0.00000  0.00000  0.00000  1
 Sc  Sc2  1  0.00000  0.00000  0.50000  1
 Si  Si1  1  0.66667  0.33333  0.62887  1
 Si  Si2  1  0.33333  0.66667  0.37113  1
 Si  Si3  1  0.66667  0.33333  0.87113  1
 Si  Si4  1  0.33333  0.66667  0.12887  1
