CIF file written using JARVIS-Tools package.
data_K3TaF8
_symmetry_space_group_name_H-M  'P6_3mc'
_cell_length_a       8.26093
_cell_length_b       8.26093
_cell_length_c       6.25599
_cell_angle_alpha    90
_cell_angle_beta     90
_cell_angle_gamma    119.999

_symmetry_Int_Tables_number  186
_chemical_formula_structural  K3TaF8
_chemical_formula_sum  K6Ta2F6
_cell_volume  369.7325080580323
_cell_formula_units_Z  2
loop_
  _symmetry_equiv_pos_site_id
 _symmetry_equiv_pos_as_xyz
 1  'x, y, z'
loop_
 _atom_site_type_symbol
 _atom_site_label
 _atom_site_symmetry_multiplicity
 _atom_site_fract_x
 _atom_site_fract_y
 _atom_site_fract_z
 _atom_site_fract_occupancy
 F  F1  1  0.20002  0.79999  0.81803  1
 F  F2  1  0.00000  1.00000  0.00487  1
 F  F3  1  1.00000  0.00000  0.50487  1
 F  F4  1  0.43889  0.56111  0.53129  1
 F  F5  1  0.40010  0.20007  0.31808  1
 F  F6  1  0.43892  0.87786  0.53134  1
 F  F7  1  0.12214  0.56108  0.53134  1
 F  F8  1  0.56111  0.43889  0.03129  1
 F  F9  1  0.56108  0.12214  0.03134  1
 F  F10  1  0.33330  0.66670  0.05689  1
 F  F11  1  0.66670  0.33330  0.55689  1
 F  F12  1  0.79993  0.59990  0.31808  1
 F  F13  1  0.79998  0.20002  0.31803  1
 F  F14  1  0.20007  0.40010  0.81808  1
 F  F15  1  0.59990  0.79993  0.81808  1
 F  F16  1  0.87786  0.43892  0.03134  1
 K  K1  1  0.30877  0.15439  0.74553  1
 K  K2  1  0.84564  0.15437  0.74554  1
 K  K3  1  0.15436  0.84564  0.24554  1
 K  K4  1  0.69123  0.84561  0.24553  1
 K  K5  1  0.84560  0.69123  0.74553  1
 K  K6  1  0.15439  0.30877  0.24553  1
 Ta  Ta1  1  0.66669  0.33331  0.23909  1
 Ta  Ta2  1  0.33331  0.66669  0.73909  1
