CIF file written using JARVIS-Tools package.
data_Tl2Pd
_symmetry_space_group_name_H-M  'I4/mcm'
_cell_length_a       5.67903
_cell_length_b       5.67902
_cell_length_c       5.67903
_cell_angle_alpha    105.418
_cell_angle_beta     105.418
_cell_angle_gamma    117.922

_symmetry_Int_Tables_number  140
_chemical_formula_structural  Tl2Pd
_chemical_formula_sum  Tl4Pd2
_cell_volume  138.66223757433954
_cell_formula_units_Z  2
loop_
  _symmetry_equiv_pos_site_id
 _symmetry_equiv_pos_as_xyz
 1  'x, y, z'
loop_
 _atom_site_type_symbol
 _atom_site_label
 _atom_site_symmetry_multiplicity
 _atom_site_fract_x
 _atom_site_fract_y
 _atom_site_fract_z
 _atom_site_fract_occupancy
 Pd  Pd1  1  0.25000  0.25000  0.00000  1
 Pd  Pd2  1  0.75000  0.75000  0.00000  1
 Tl  Tl1  1  0.33546  0.83546  0.17093  1
 Tl  Tl2  1  0.16454  0.33546  0.50000  1
 Tl  Tl3  1  0.83546  0.66454  0.50000  1
 Tl  Tl4  1  0.66454  0.16454  0.82907  1
