CIF file written using JARVIS-Tools package.
data_LiSiBiO4
_symmetry_space_group_name_H-M  'Pnma'
_cell_length_a       5.76909
_cell_length_b       7.0754
_cell_length_c       8.85651
_cell_angle_alpha    90
_cell_angle_beta     90
_cell_angle_gamma    90

_symmetry_Int_Tables_number  62
_chemical_formula_structural  LiSiBiO4
_chemical_formula_sum  Li4Si4Bi4O6
_cell_volume  361.51053150746714
_cell_formula_units_Z  4
loop_
  _symmetry_equiv_pos_site_id
 _symmetry_equiv_pos_as_xyz
 1  'x, y, z'
loop_
 _atom_site_type_symbol
 _atom_site_label
 _atom_site_symmetry_multiplicity
 _atom_site_fract_x
 _atom_site_fract_y
 _atom_site_fract_z
 _atom_site_fract_occupancy
 Bi  Bi1  1  0.13265  0.75000  0.33823  1
 Bi  Bi2  1  0.86735  0.25000  0.66177  1
 Bi  Bi3  1  0.63265  0.25000  0.16177  1
 Bi  Bi4  1  0.36735  0.75000  0.83823  1
 Li  Li1  1  0.00000  0.00000  0.00000  1
 Li  Li2  1  0.50000  0.00000  0.50000  1
 Li  Li3  1  0.50000  0.50000  0.50000  1
 Li  Li4  1  0.00000  0.50000  0.00000  1
 O  O1  1  0.98403  0.75000  0.86736  1
 O  O2  1  0.75067  0.93652  0.14437  1
 O  O3  1  0.75067  0.56348  0.14437  1
 O  O4  1  0.48403  0.25000  0.63264  1
 O  O5  1  0.74933  0.93652  0.64437  1
 O  O6  1  0.74933  0.56348  0.64437  1
 O  O7  1  0.66172  0.25000  0.90126  1
 O  O8  1  0.01597  0.25000  0.13264  1
 O  O9  1  0.51597  0.75000  0.36736  1
 O  O10  1  0.25067  0.06348  0.35563  1
 O  O11  1  0.24933  0.43652  0.85563  1
 O  O12  1  0.24933  0.06348  0.85563  1
 O  O13  1  0.83828  0.25000  0.40126  1
 O  O14  1  0.25067  0.43652  0.35563  1
 O  O15  1  0.16172  0.75000  0.59874  1
 O  O16  1  0.33828  0.75000  0.09874  1
 Si  Si1  1  0.09648  0.25000  0.31331  1
 Si  Si2  1  0.40352  0.25000  0.81331  1
 Si  Si3  1  0.59648  0.75000  0.18669  1
 Si  Si4  1  0.90352  0.75000  0.68669  1
