CIF file written using JARVIS-Tools package.
data_TbPS4
_symmetry_space_group_name_H-M  'I4_1/acd'
_cell_length_a       10.704
_cell_length_b       10.704
_cell_length_c       12.1918
_cell_angle_alpha    116.039
_cell_angle_beta     116.039
_cell_angle_gamma    90

_symmetry_Int_Tables_number  142
_chemical_formula_structural  TbPS4
_chemical_formula_sum  Tb8P8S32
_cell_volume  1095.0972109629797
_cell_formula_units_Z  8
loop_
  _symmetry_equiv_pos_site_id
 _symmetry_equiv_pos_as_xyz
 1  'x, y, z'
loop_
 _atom_site_type_symbol
 _atom_site_label
 _atom_site_symmetry_multiplicity
 _atom_site_fract_x
 _atom_site_fract_y
 _atom_site_fract_z
 _atom_site_fract_occupancy
 P  P1  1  0.21241  0.75000  0.50000  1
 P  P2  1  0.28759  0.25000  0.50000  1
 P  P3  1  0.78759  0.25000  0.50000  1
 P  P4  1  0.75000  0.78759  0.00000  1
 P  P5  1  0.25000  0.71241  -0.00000  1
 P  P6  1  0.71241  0.75000  0.50000  1
 P  P7  1  0.25000  0.21241  -0.00000  1
 P  P8  1  0.75000  0.28759  0.00000  1
 S  S1  1  0.60809  0.90941  0.49319  1
 S  S2  1  0.88510  0.08378  0.49319  1
 S  S3  1  0.41622  0.61490  0.00681  1
 S  S4  1  0.59059  0.89191  0.00681  1
 S  S5  1  0.89191  0.41622  0.50681  1
 S  S6  1  0.61490  0.59059  0.50681  1
 S  S7  1  0.34320  0.40764  0.17816  1
 S  S8  1  0.08378  0.60809  0.99319  1
 S  S9  1  0.90764  0.84320  0.67816  1
 S  S10  1  0.33496  0.90764  0.17816  1
 S  S11  1  0.66504  0.09236  0.82184  1
 S  S12  1  0.15680  0.22948  0.82184  1
 S  S13  1  0.22948  0.66504  0.32184  1
 S  S14  1  0.09236  0.15680  0.32184  1
 S  S15  1  0.65680  0.59236  0.82184  1
 S  S16  1  0.72948  0.65680  0.32184  1
 S  S17  1  0.59236  0.16504  0.32184  1
 S  S18  1  0.27052  0.34320  0.67816  1
 S  S19  1  0.84320  0.77052  0.17816  1
 S  S20  1  0.83496  0.27052  0.17816  1
 S  S21  1  0.58378  0.38510  0.99319  1
 S  S22  1  0.90941  0.88510  0.99319  1
 S  S23  1  0.77052  0.33496  0.67816  1
 S  S24  1  0.09059  0.11490  0.00681  1
 S  S25  1  0.39191  0.09059  0.50681  1
 S  S26  1  0.11490  0.91622  0.50681  1
 S  S27  1  0.16504  0.72948  0.82184  1
 S  S28  1  0.40941  0.10809  0.99319  1
 S  S29  1  0.40764  0.83496  0.67816  1
 S  S30  1  0.38510  0.40941  0.49319  1
 S  S31  1  0.91622  0.39191  0.00681  1
 S  S32  1  0.10809  0.58378  0.49319  1
 Tb  Tb1  1  0.37500  0.12500  0.75000  1
 Tb  Tb2  1  0.87500  0.12500  0.75000  1
 Tb  Tb3  1  0.12500  0.87500  0.25000  1
 Tb  Tb4  1  0.62500  0.37500  0.25000  1
 Tb  Tb5  1  0.37500  0.62500  0.75000  1
 Tb  Tb6  1  0.62500  0.87500  0.25000  1
 Tb  Tb7  1  0.87500  0.62500  0.75000  1
 Tb  Tb8  1  0.12500  0.37500  0.25000  1
