CIF file written using JARVIS-Tools package.
data_Rb2AgSbS4
_symmetry_space_group_name_H-M  'P2_1/c'
_cell_length_a       8.20627
_cell_length_b       10.8599
_cell_length_c       12.9391
_cell_angle_alpha    90
_cell_angle_beta     126.741
_cell_angle_gamma    90

_symmetry_Int_Tables_number  14
_chemical_formula_structural  Rb2AgSbS4
_chemical_formula_sum  Rb8Ag4Sb4S6
_cell_volume  924.048276751961
_cell_formula_units_Z  4
loop_
  _symmetry_equiv_pos_site_id
 _symmetry_equiv_pos_as_xyz
 1  'x, y, z'
loop_
 _atom_site_type_symbol
 _atom_site_label
 _atom_site_symmetry_multiplicity
 _atom_site_fract_x
 _atom_site_fract_y
 _atom_site_fract_z
 _atom_site_fract_occupancy
 Ag  Ag1  1  0.35079  0.46983  0.72852  1
 Ag  Ag2  1  0.64921  0.53017  0.27148  1
 Ag  Ag3  1  0.64921  0.96983  0.77148  1
 Ag  Ag4  1  0.35079  0.03017  0.22852  1
 Rb  Rb1  1  0.88720  0.48832  0.76406  1
 Rb  Rb2  1  0.88720  0.01168  0.26406  1
 Rb  Rb3  1  0.11280  0.98832  0.73594  1
 Rb  Rb4  1  0.36394  0.22911  0.50486  1
 Rb  Rb5  1  0.11280  0.51168  0.23594  1
 Rb  Rb6  1  0.63606  0.77089  0.49514  1
 Rb  Rb7  1  0.63606  0.72911  0.99514  1
 Rb  Rb8  1  0.36394  0.27089  0.00486  1
 S  S1  1  0.68821  0.42775  0.94452  1
 S  S2  1  0.83502  0.31675  0.28745  1
 S  S3  1  0.84773  0.72768  0.33651  1
 S  S4  1  0.31179  0.92775  0.55548  1
 S  S5  1  0.31179  0.57225  0.05548  1
 S  S6  1  0.61138  0.43275  0.45069  1
 S  S7  1  0.15227  0.27232  0.66349  1
 S  S8  1  0.16498  0.68325  0.71255  1
 S  S9  1  0.61138  0.06725  0.95069  1
 S  S10  1  0.38862  0.93275  0.04931  1
 S  S11  1  0.15227  0.22768  0.16349  1
 S  S12  1  0.83502  0.18325  0.78745  1
 S  S13  1  0.68821  0.07225  0.44452  1
 S  S14  1  0.16498  0.81675  0.21255  1
 S  S15  1  0.38862  0.56725  0.54931  1
 S  S16  1  0.84773  0.77232  0.83651  1
 Sb  Sb1  1  0.17857  0.72516  0.53721  1
 Sb  Sb2  1  0.82143  0.22516  0.96279  1
 Sb  Sb3  1  0.17857  0.77484  0.03721  1
 Sb  Sb4  1  0.82143  0.27484  0.46279  1
