CIF file written using JARVIS-Tools package.
data_In6Ga2PtO8
_symmetry_space_group_name_H-M  'Fm-3m'
_cell_length_a       7.16916
_cell_length_b       7.16916
_cell_length_c       7.16915
_cell_angle_alpha    60
_cell_angle_beta     60
_cell_angle_gamma    60

_symmetry_Int_Tables_number  225
_chemical_formula_structural  In6Ga2PtO8
_chemical_formula_sum  In6Ga2PtO8
_cell_volume  260.5481434967323
_cell_formula_units_Z  1
loop_
  _symmetry_equiv_pos_site_id
 _symmetry_equiv_pos_as_xyz
 1  'x, y, z'
loop_
 _atom_site_type_symbol
 _atom_site_label
 _atom_site_symmetry_multiplicity
 _atom_site_fract_x
 _atom_site_fract_y
 _atom_site_fract_z
 _atom_site_fract_occupancy
 Ga  Ga1  1  0.75000  0.75000  0.75000  1
 Ga  Ga2  1  0.25000  0.25000  0.25000  1
 In  In1  1  0.74680  0.74680  0.25320  1
 In  In2  1  0.25320  0.25320  0.74680  1
 In  In3  1  0.74680  0.25320  0.74680  1
 In  In4  1  0.25320  0.74680  0.25320  1
 In  In5  1  0.25320  0.74680  0.74680  1
 In  In6  1  0.74680  0.25320  0.25320  1
 O  O1  1  0.35874  0.35874  0.92379  1
 O  O2  1  0.35874  0.92379  0.35874  1
 O  O3  1  0.92379  0.35874  0.35874  1
 O  O4  1  0.64126  0.64126  0.64126  1
 O  O5  1  0.07621  0.64126  0.64126  1
 O  O6  1  0.64126  0.64126  0.07621  1
 O  O7  1  0.35874  0.35874  0.35874  1
 O  O8  1  0.64126  0.07621  0.64126  1
 Pt  Pt1  1  0.00000  0.00000  0.00000  1
