CIF file written using JARVIS-Tools package.
data_Sm6Si4S17
_symmetry_space_group_name_H-M  'P-1'
_cell_length_a       8.90784
_cell_length_b       9.79756
_cell_length_c       14.1164
_cell_angle_alpha    81.9382
_cell_angle_beta     87.9007
_cell_angle_gamma    89.0426

_symmetry_Int_Tables_number  2
_chemical_formula_structural  Sm6Si4S17
_chemical_formula_sum  Sm2Si8S34
_cell_volume  1218.9341162401838
_cell_formula_units_Z  2
loop_
  _symmetry_equiv_pos_site_id
 _symmetry_equiv_pos_as_xyz
 1  'x, y, z'
loop_
 _atom_site_type_symbol
 _atom_site_label
 _atom_site_symmetry_multiplicity
 _atom_site_fract_x
 _atom_site_fract_y
 _atom_site_fract_z
 _atom_site_fract_occupancy
 S  S1  1  0.01416  0.49517  0.62059  1
 S  S2  1  0.32084  0.91298  0.29290  1
 S  S3  1  0.88948  0.79795  0.65920  1
 S  S4  1  0.35412  0.53975  0.70958  1
 S  S5  1  0.18295  0.97632  0.53005  1
 S  S6  1  0.67814  0.51592  0.04561  1
 S  S7  1  0.62831  0.72100  0.83336  1
 S  S8  1  0.51112  0.84663  0.59977  1
 S  S9  1  0.00817  0.37423  0.11453  1
 S  S10  1  0.37169  0.27900  0.16664  1
 S  S11  1  0.48888  0.15337  0.40023  1
 S  S12  1  0.69575  0.69283  0.45812  1
 S  S13  1  0.69676  0.36103  0.54383  1
 S  S14  1  0.65763  -0.00023  0.94279  1
 S  S15  1  0.99183  0.62577  0.88547  1
 S  S16  1  0.11052  0.20205  0.34080  1
 S  S17  1  0.74637  0.12164  0.14984  1
 S  S18  1  0.05813  0.14279  0.71770  1
 S  S19  1  0.64588  0.46025  0.29042  1
 S  S20  1  0.34237  0.00023  0.05721  1
 S  S21  1  0.32186  0.48408  0.95439  1
 S  S22  1  0.81705  0.02368  0.46995  1
 S  S23  1  0.67916  0.08702  0.70710  1
 S  S24  1  0.74862  0.38162  0.82998  1
 S  S25  1  0.37831  0.21580  0.83573  1
 S  S26  1  0.25363  0.87836  0.85016  1
 S  S27  1  0.30324  0.63897  0.45617  1
 S  S28  1  0.25138  0.61838  0.17002  1
 S  S29  1  0.96410  0.84842  0.04922  1
 S  S30  1  0.62169  0.78420  0.16427  1
 S  S31  1  0.03590  0.15158  0.95078  1
 S  S32  1  0.94187  0.85721  0.28230  1
 S  S33  1  0.30425  0.30717  0.54188  1
 S  S34  1  0.98584  0.50483  0.37941  1
 Si  Si1  1  0.75247  0.94061  0.07873  1
 Si  Si2  1  0.74780  0.49508  0.41688  1
 Si  Si3  1  0.25220  0.50492  0.58312  1
 Si  Si4  1  0.28170  0.05311  0.39143  1
 Si  Si5  1  0.24753  0.05939  0.92127  1
 Si  Si6  1  0.76776  0.55987  0.90135  1
 Si  Si7  1  0.71830  0.94689  0.60857  1
 Si  Si8  1  0.23224  0.44013  0.09865  1
 Sm  Sm1  1  0.33674  0.41058  0.34152  1
 Sm  Sm2  1  0.89602  0.61416  0.18699  1
 Sm  Sm3  1  0.54993  0.26167  0.99790  1
 Sm  Sm4  1  0.99173  0.23680  0.53135  1
 Sm  Sm5  1  0.63924  0.94123  0.32186  1
 Sm  Sm6  1  0.10398  0.38584  0.81301  1
 Sm  Sm7  1  0.45007  0.73833  0.00210  1
 Sm  Sm8  1  0.36076  0.05877  0.67814  1
 Sm  Sm9  1  0.00827  0.76320  0.46865  1
 Sm  Sm10  1  0.08876  0.07952  0.16502  1
 Sm  Sm11  1  0.66326  0.58942  0.65848  1
 Sm  Sm12  1  0.91124  0.92048  0.83498  1
