CIF file written using JARVIS-Tools package.
data_RbSb3Se5
_symmetry_space_group_name_H-M  'P2_1/c'
_cell_length_a       8.73606
_cell_length_b       13.0207
_cell_length_c       12.3769
_cell_angle_alpha    90
_cell_angle_beta     128.675
_cell_angle_gamma    90

_symmetry_Int_Tables_number  14
_chemical_formula_structural  RbSb3Se5
_chemical_formula_sum  Rb4Sb2Se20
_cell_volume  1099.1351988032864
_cell_formula_units_Z  4
loop_
  _symmetry_equiv_pos_site_id
 _symmetry_equiv_pos_as_xyz
 1  'x, y, z'
loop_
 _atom_site_type_symbol
 _atom_site_label
 _atom_site_symmetry_multiplicity
 _atom_site_fract_x
 _atom_site_fract_y
 _atom_site_fract_z
 _atom_site_fract_occupancy
 Rb  Rb1  1  0.32233  0.75049  0.70020  1
 Rb  Rb2  1  0.67767  0.25049  0.79980  1
 Rb  Rb3  1  0.67767  0.24951  0.29980  1
 Rb  Rb4  1  0.32233  0.74951  0.20020  1
 Sb  Sb1  1  0.86524  0.56269  0.04283  1
 Sb  Sb2  1  0.18122  0.03971  0.17795  1
 Sb  Sb3  1  0.81878  0.53971  0.32205  1
 Sb  Sb4  1  0.18122  0.46029  0.67795  1
 Sb  Sb5  1  0.13476  0.06269  0.45717  1
 Sb  Sb6  1  0.81878  0.96029  0.82205  1
 Sb  Sb7  1  0.86524  0.93731  0.54283  1
 Sb  Sb8  1  0.13476  0.43731  0.95717  1
 Sb  Sb9  1  0.26468  0.10060  0.87445  1
 Sb  Sb10  1  0.26468  0.39940  0.37445  1
 Sb  Sb11  1  0.73532  0.89940  0.12555  1
 Sb  Sb12  1  0.73532  0.60060  0.62555  1
 Se  Se1  1  0.81360  0.40850  0.60024  1
 Se  Se2  1  0.82179  0.80928  0.96360  1
 Se  Se3  1  0.59700  0.51771  0.78388  1
 Se  Se4  1  0.17821  0.19072  0.03640  1
 Se  Se5  1  0.82179  0.69072  0.46360  1
 Se  Se6  1  0.81360  0.09150  0.10024  1
 Se  Se7  1  0.18640  0.59150  0.39976  1
 Se  Se8  1  0.18640  0.90850  0.89976  1
 Se  Se9  1  0.17821  0.30928  0.53640  1
 Se  Se10  1  0.59700  0.98229  0.28388  1
 Se  Se11  1  0.10252  0.62701  0.85627  1
 Se  Se12  1  0.37067  0.14227  0.41190  1
 Se  Se13  1  0.62933  0.64227  0.08810  1
 Se  Se14  1  0.62933  0.85773  0.58810  1
 Se  Se15  1  0.37067  0.35773  0.91190  1
 Se  Se16  1  0.40300  0.48229  0.21612  1
 Se  Se17  1  0.10252  0.87299  0.35627  1
 Se  Se18  1  0.89748  0.12701  0.64373  1
 Se  Se19  1  0.89748  0.37299  0.14373  1
 Se  Se20  1  0.40300  0.01771  0.71612  1
