CIF file written using JARVIS-Tools package.
data_Sr2CuF6
_symmetry_space_group_name_H-M  'Cmce'
_cell_length_a       5.76911
_cell_length_b       5.76469
_cell_length_c       8.73598
_cell_angle_alpha    90
_cell_angle_beta     109.281
_cell_angle_gamma    90

_symmetry_Int_Tables_number  64
_chemical_formula_structural  Sr2CuF6
_chemical_formula_sum  Sr4Cu2F2
_cell_volume  274.2382013349639
_cell_formula_units_Z  2
loop_
  _symmetry_equiv_pos_site_id
 _symmetry_equiv_pos_as_xyz
 1  'x, y, z'
loop_
 _atom_site_type_symbol
 _atom_site_label
 _atom_site_symmetry_multiplicity
 _atom_site_fract_x
 _atom_site_fract_y
 _atom_site_fract_z
 _atom_site_fract_occupancy
 Cu  Cu1  1  0.00000  0.50000  0.00000  1
 Cu  Cu2  1  0.50000  0.00000  0.00000  1
 F  F1  1  0.58584  0.83246  0.83744  1
 F  F2  1  0.75160  0.33246  0.83744  1
 F  F3  1  0.99273  0.25000  0.50000  1
 F  F4  1  0.25160  0.16754  0.83744  1
 F  F5  1  0.24840  0.66754  0.16256  1
 F  F6  1  0.50727  0.75000  0.50000  1
 F  F7  1  0.08584  0.66754  0.83744  1
 F  F8  1  0.91416  0.33246  0.16256  1
 F  F9  1  0.00727  0.75000  0.50000  1
 F  F10  1  0.49273  0.25000  0.50000  1
 F  F11  1  0.41416  0.16754  0.16256  1
 F  F12  1  0.74840  0.83246  0.16256  1
 Sr  Sr1  1  0.33824  0.50000  0.67647  1
 Sr  Sr2  1  0.83824  0.00000  0.67647  1
 Sr  Sr3  1  0.16176  0.00000  0.32353  1
 Sr  Sr4  1  0.66176  0.50000  0.32353  1
