CIF file written using JARVIS-Tools package.
data_MoP2
_symmetry_space_group_name_H-M  'Cmc2_1'
_cell_length_a       3.18213
_cell_length_b       5.04217
_cell_length_c       5.85748
_cell_angle_alpha    90
_cell_angle_beta     105.761
_cell_angle_gamma    90

_symmetry_Int_Tables_number  36
_chemical_formula_structural  MoP2
_chemical_formula_sum  Mo2P4
_cell_volume  90.44901850039666
_cell_formula_units_Z  2
loop_
  _symmetry_equiv_pos_site_id
 _symmetry_equiv_pos_as_xyz
 1  'x, y, z'
loop_
 _atom_site_type_symbol
 _atom_site_label
 _atom_site_symmetry_multiplicity
 _atom_site_fract_x
 _atom_site_fract_y
 _atom_site_fract_z
 _atom_site_fract_occupancy
 Mo  Mo1  1  0.09343  0.50099  0.18687  1
 Mo  Mo2  1  0.90657  0.00099  0.81313  1
 P  P1  1  0.43082  0.62032  0.86164  1
 P  P2  1  0.56918  0.12032  0.13836  1
 P  P3  1  0.70085  0.80370  0.40169  1
 P  P4  1  0.29915  0.30370  0.59831  1
