CIF file written using JARVIS-Tools package.
data_K4BaGe3O9
_symmetry_space_group_name_H-M  'C2'
_cell_length_a       7.51476
_cell_length_b       7.51476
_cell_length_c       11.4405
_cell_angle_alpha    90.4297
_cell_angle_beta     90.4297
_cell_angle_gamma    111.803

_symmetry_Int_Tables_number  5
_chemical_formula_structural  K4BaGe3O9
_chemical_formula_sum  K8Ba2Ge6O8
_cell_volume  599.7965999756981
_cell_formula_units_Z  2
loop_
  _symmetry_equiv_pos_site_id
 _symmetry_equiv_pos_as_xyz
 1  'x, y, z'
loop_
 _atom_site_type_symbol
 _atom_site_label
 _atom_site_symmetry_multiplicity
 _atom_site_fract_x
 _atom_site_fract_y
 _atom_site_fract_z
 _atom_site_fract_occupancy
 Ba  Ba1  1  0.81645  0.19875  0.77530  1
 Ba  Ba2  1  0.80125  0.18355  0.22470  1
 Ge  Ge1  1  0.48814  0.91114  0.52240  1
 Ge  Ge2  1  0.08886  0.51186  0.47760  1
 Ge  Ge3  1  0.33366  0.11315  0.74078  1
 Ge  Ge4  1  0.88685  0.66634  0.25922  1
 Ge  Ge5  1  0.49401  0.89866  0.96764  1
 Ge  Ge6  1  0.10134  0.50599  0.03236  1
 K  K1  1  0.84228  0.70677  0.74903  1
 K  K2  1  0.99640  0.00360  0.50000  1
 K  K3  1  0.41828  0.68612  0.25484  1
 K  K4  1  0.58628  0.41372  0.50000  1
 K  K5  1  0.56566  0.43434  -0.00000  1
 K  K6  1  0.29323  0.15772  0.25097  1
 K  K7  1  0.05649  0.94351  0.00000  1
 K  K8  1  0.31388  0.58172  0.74516  1
 O  O1  1  0.06409  0.62588  0.16556  1
 O  O2  1  0.54001  0.02563  0.38717  1
 O  O3  1  0.90550  0.90045  0.23828  1
 O  O4  1  0.09955  0.09450  0.76172  1
 O  O5  1  0.33569  0.02165  0.59236  1
 O  O6  1  0.35081  0.64919  0.00000  1
 O  O7  1  0.94483  0.51626  0.92138  1
 O  O8  1  0.34539  0.65461  0.50000  1
 O  O9  1  0.10899  0.28738  0.07521  1
 O  O10  1  0.66009  0.48051  0.24615  1
 O  O11  1  0.67156  0.90696  0.61562  1
 O  O12  1  0.09304  0.32844  0.38438  1
 O  O13  1  0.97437  0.45999  0.61283  1
 O  O14  1  0.48374  0.05517  0.07862  1
 O  O15  1  0.71262  0.89101  0.92479  1
 O  O16  1  0.97835  0.66431  0.40764  1
 O  O17  1  0.37412  0.93591  0.83444  1
 O  O18  1  0.51949  0.33991  0.75385  1
