CIF file written using JARVIS-Tools package.
data_ThAl8Fe4
_symmetry_space_group_name_H-M  'I4/mmm'
_cell_length_a       5.06055
_cell_length_b       6.71781
_cell_length_c       6.71782
_cell_angle_alpha    81.8441
_cell_angle_beta     67.8736
_cell_angle_gamma    67.8736

_symmetry_Int_Tables_number  139
_chemical_formula_structural  ThAl8Fe4
_chemical_formula_sum  ThAl8Fe4
_cell_volume  195.97826273771489
_cell_formula_units_Z  1
loop_
  _symmetry_equiv_pos_site_id
 _symmetry_equiv_pos_as_xyz
 1  'x, y, z'
loop_
 _atom_site_type_symbol
 _atom_site_label
 _atom_site_symmetry_multiplicity
 _atom_site_fract_x
 _atom_site_fract_y
 _atom_site_fract_z
 _atom_site_fract_occupancy
 Al  Al1  1  0.72441  0.77559  0.77559  1
 Al  Al2  1  0.50000  0.22441  0.77559  1
 Al  Al3  1  0.50000  0.77559  0.22441  1
 Al  Al4  1  0.27559  0.22441  0.22441  1
 Al  Al5  1  0.65469  0.34531  0.34531  1
 Al  Al6  1  0.34531  0.65469  0.65469  1
 Al  Al7  1  0.00000  0.34531  0.65469  1
 Al  Al8  1  -0.00000  0.65469  0.34531  1
 Fe  Fe1  1  0.00000  0.00000  0.50000  1
 Fe  Fe2  1  0.50000  0.50000  -0.00000  1
 Fe  Fe3  1  0.00000  0.50000  -0.00000  1
 Fe  Fe4  1  0.50000  0.00000  0.50000  1
 Th  Th1  1  0.00000  0.00000  0.00000  1
