CIF file written using JARVIS-Tools package.
data_BePd2
_symmetry_space_group_name_H-M  'I4/mmm'
_cell_length_a       2.77253
_cell_length_b       2.77253
_cell_length_c       5.30626
_cell_angle_alpha    105.144
_cell_angle_beta     105.144
_cell_angle_gamma    89.9999

_symmetry_Int_Tables_number  139
_chemical_formula_structural  BePd2
_chemical_formula_sum  BePd2
_cell_volume  37.90261285209228
_cell_formula_units_Z  1
loop_
  _symmetry_equiv_pos_site_id
 _symmetry_equiv_pos_as_xyz
 1  'x, y, z'
loop_
 _atom_site_type_symbol
 _atom_site_label
 _atom_site_symmetry_multiplicity
 _atom_site_fract_x
 _atom_site_fract_y
 _atom_site_fract_z
 _atom_site_fract_occupancy
 Be  Be1  1  0.00000  0.00000  0.00000  1
 Pd  Pd1  1  0.35661  0.35661  0.71321  1
 Pd  Pd2  1  0.64339  0.64339  0.28679  1
