CIF file written using JARVIS-Tools package.
data_Ba3Fe2Cl2O5
_symmetry_space_group_name_H-M  'I2_13'
_cell_length_a       8.7272
_cell_length_b       8.7272
_cell_length_c       8.7272
_cell_angle_alpha    109.471
_cell_angle_beta     109.471
_cell_angle_gamma    109.471

_symmetry_Int_Tables_number  199
_chemical_formula_structural  Ba3Fe2Cl2O5
_chemical_formula_sum  Ba6Fe4Cl4O0
_cell_volume  511.68463504497606
_cell_formula_units_Z  2
loop_
  _symmetry_equiv_pos_site_id
 _symmetry_equiv_pos_as_xyz
 1  'x, y, z'
loop_
 _atom_site_type_symbol
 _atom_site_label
 _atom_site_symmetry_multiplicity
 _atom_site_fract_x
 _atom_site_fract_y
 _atom_site_fract_z
 _atom_site_fract_occupancy
 Ba  Ba1  1  0.25000  0.65287  0.40287  1
 Ba  Ba2  1  0.40287  0.25000  0.65287  1
 Ba  Ba3  1  0.84713  0.09713  0.75000  1
 Ba  Ba4  1  0.75000  0.84713  0.09713  1
 Ba  Ba5  1  0.65287  0.40287  0.25000  1
 Ba  Ba6  1  0.09713  0.75000  0.84713  1
 Cl  Cl1  1  0.61461  0.61461  0.61461  1
 Cl  Cl2  1  -0.00000  0.88539  0.50000  1
 Cl  Cl3  1  0.88539  0.50000  0.00000  1
 Cl  Cl4  1  0.50000  0.00000  0.88539  1
 Fe  Fe1  1  0.50000  -0.00000  0.31341  1
 Fe  Fe2  1  0.31341  0.50000  -0.00000  1
 Fe  Fe3  1  0.18659  0.18659  0.18659  1
 Fe  Fe4  1  0.00000  0.31341  0.50000  1
 O  O1  1  0.11100  0.36100  0.75000  1
 O  O2  1  0.50000  0.00000  0.52359  1
 O  O3  1  0.25000  0.38900  0.13900  1
 O  O4  1  0.38900  0.13900  0.25000  1
 O  O5  1  -0.00000  0.52359  0.50000  1
 O  O6  1  0.75000  0.11100  0.36100  1
 O  O7  1  0.52359  0.50000  0.00000  1
 O  O8  1  0.13900  0.25000  0.38900  1
 O  O9  1  0.97641  0.97641  0.97641  1
 O  O10  1  0.36100  0.75000  0.11100  1
