CIF file written using JARVIS-Tools package.
data_Na5Al3F14
_symmetry_space_group_name_H-M  'P4/mnc'
_cell_length_a       7.02466
_cell_length_b       7.02466
_cell_length_c       10.4603
_cell_angle_alpha    90
_cell_angle_beta     90
_cell_angle_gamma    90

_symmetry_Int_Tables_number  128
_chemical_formula_structural  Na5Al3F14
_chemical_formula_sum  Na0Al6F28
_cell_volume  516.1712961285721
_cell_formula_units_Z  2
loop_
  _symmetry_equiv_pos_site_id
 _symmetry_equiv_pos_as_xyz
 1  'x, y, z'
loop_
 _atom_site_type_symbol
 _atom_site_label
 _atom_site_symmetry_multiplicity
 _atom_site_fract_x
 _atom_site_fract_y
 _atom_site_fract_z
 _atom_site_fract_occupancy
 Al  Al1  1  0.50000  0.00000  0.00000  1
 Al  Al2  1  0.00000  0.50000  0.00000  1
 Al  Al3  1  0.00000  0.00000  0.00000  1
 Al  Al4  1  0.50000  0.50000  0.50000  1
 Al  Al5  1  0.00000  0.50000  0.50000  1
 Al  Al6  1  0.50000  0.00000  0.50000  1
 F  F1  1  0.18088  0.54081  0.12108  1
 F  F2  1  0.54081  0.81912  0.12108  1
 F  F3  1  0.45919  0.18088  0.87892  1
 F  F4  1  0.31912  0.04081  0.37892  1
 F  F5  1  0.81912  0.45919  0.12108  1
 F  F6  1  0.04081  0.68088  0.37892  1
 F  F7  1  0.75210  0.07318  0.00000  1
 F  F8  1  0.95919  0.31912  0.37892  1
 F  F9  1  0.81912  0.45919  0.87892  1
 F  F10  1  0.54081  0.81912  0.87892  1
 F  F11  1  0.74790  0.57318  0.50000  1
 F  F12  1  0.31912  0.04081  0.62108  1
 F  F13  1  0.68088  0.95919  0.62108  1
 F  F14  1  0.18088  0.54081  0.87892  1
 F  F15  1  0.95919  0.31912  0.62108  1
 F  F16  1  0.04081  0.68088  0.62108  1
 F  F17  1  0.00000  0.00000  0.17344  1
 F  F18  1  0.50000  0.50000  0.32656  1
 F  F19  1  0.25210  0.42682  0.50000  1
 F  F20  1  0.50000  0.50000  0.67344  1
 F  F21  1  0.07318  0.24790  0.00000  1
 F  F22  1  0.68088  0.95919  0.37892  1
 F  F23  1  0.24790  0.92682  0.00000  1
 F  F24  1  0.57318  0.25210  0.50000  1
 F  F25  1  0.42682  0.74790  0.50000  1
 F  F26  1  0.92682  0.75210  0.00000  1
 F  F27  1  0.45919  0.18088  0.12108  1
 F  F28  1  0.00000  0.00000  0.82656  1
 Na  Na1  1  0.50000  0.50000  0.00000  1
 Na  Na2  1  0.27964  0.77964  0.25000  1
 Na  Na3  1  0.22036  0.27964  0.25000  1
 Na  Na4  1  0.77964  0.72036  0.25000  1
 Na  Na5  1  0.77964  0.72036  0.75000  1
 Na  Na6  1  0.27964  0.77964  0.75000  1
 Na  Na7  1  0.22036  0.27964  0.75000  1
 Na  Na8  1  0.72036  0.22036  0.75000  1
 Na  Na9  1  0.72036  0.22036  0.25000  1
 Na  Na10  1  0.00000  0.00000  0.50000  1
