CIF file written using JARVIS-Tools package.
data_NbO2F
_symmetry_space_group_name_H-M  'Cc'
_cell_length_a       5.36646
_cell_length_b       5.62723
_cell_length_c       5.36646
_cell_angle_alpha    119.249
_cell_angle_beta     61.5126
_cell_angle_gamma    119.249

_symmetry_Int_Tables_number  9
_chemical_formula_structural  NbO2F
_chemical_formula_sum  Nb2O4F2
_cell_volume  117.17121966153005
_cell_formula_units_Z  2
loop_
  _symmetry_equiv_pos_site_id
 _symmetry_equiv_pos_as_xyz
 1  'x, y, z'
loop_
 _atom_site_type_symbol
 _atom_site_label
 _atom_site_symmetry_multiplicity
 _atom_site_fract_x
 _atom_site_fract_y
 _atom_site_fract_z
 _atom_site_fract_occupancy
 F  F1  1  0.88130  0.40927  0.46984  1
 F  F2  1  0.96984  0.90927  0.38130  1
 Nb  Nb1  1  0.68350  0.13969  0.74517  1
 Nb  Nb2  1  0.24517  0.63969  0.18350  1
 O  O1  1  0.04944  0.41451  0.88713  1
 O  O2  1  0.46474  0.40018  0.06131  1
 O  O3  1  0.38713  0.91451  0.54944  1
 O  O4  1  0.56131  0.90018  0.96474  1
