CIF file written using JARVIS-Tools package.
data_CaSnS3
_symmetry_space_group_name_H-M  'R-3c'
_cell_length_a       7.0944
_cell_length_b       7.0944
_cell_length_c       6.75183
_cell_angle_alpha    58.3071
_cell_angle_beta     58.3071
_cell_angle_gamma    60.0003

_symmetry_Int_Tables_number  167
_chemical_formula_structural  CaSnS3
_chemical_formula_sum  Ca2Sn2S6
_cell_volume  233.9584181439293
_cell_formula_units_Z  2
loop_
  _symmetry_equiv_pos_site_id
 _symmetry_equiv_pos_as_xyz
 1  'x, y, z'
loop_
 _atom_site_type_symbol
 _atom_site_label
 _atom_site_symmetry_multiplicity
 _atom_site_fract_x
 _atom_site_fract_y
 _atom_site_fract_z
 _atom_site_fract_occupancy
 Ca  Ca1  1  0.75000  0.75000  0.75000  1
 Ca  Ca2  1  0.25000  0.25000  0.25000  1
 S  S1  1  0.75000  0.36172  0.75000  1
 S  S2  1  0.36172  0.13828  0.75000  1
 S  S3  1  0.13828  0.75000  0.75000  1
 S  S4  1  0.63828  0.86172  0.25000  1
 S  S5  1  0.86172  0.25000  0.25000  1
 S  S6  1  0.25000  0.63828  0.25000  1
 Sn  Sn1  1  0.50000  0.50000  0.50000  1
 Sn  Sn2  1  0.00000  -0.00000  -0.00000  1
