CIF file written using JARVIS-Tools package.
data_SrFe2P4O14
_symmetry_space_group_name_H-M  'P-1'
_cell_length_a       4.82878
_cell_length_b       7.19013
_cell_length_c       7.87352
_cell_angle_alpha    89.4085
_cell_angle_beta     92.1544
_cell_angle_gamma    107.757

_symmetry_Int_Tables_number  2
_chemical_formula_structural  SrFe2P4O14
_chemical_formula_sum  SrFe2P4O4
_cell_volume  260.15683651188124
_cell_formula_units_Z  1
loop_
  _symmetry_equiv_pos_site_id
 _symmetry_equiv_pos_as_xyz
 1  'x, y, z'
loop_
 _atom_site_type_symbol
 _atom_site_label
 _atom_site_symmetry_multiplicity
 _atom_site_fract_x
 _atom_site_fract_y
 _atom_site_fract_z
 _atom_site_fract_occupancy
 Fe  Fe1  1  0.50000  0.00000  0.50000  1
 Fe  Fe2  1  0.00000  0.50000  -0.00000  1
 O  O1  1  0.31301  0.09636  0.70980  1
 O  O2  1  0.00270  0.23776  0.88324  1
 O  O3  1  0.68699  0.90364  0.29020  1
 O  O4  1  0.40470  0.19153  0.34649  1
 O  O5  1  0.12017  0.81664  0.43587  1
 O  O6  1  0.99730  0.76224  0.11676  1
 O  O7  1  0.17730  0.42974  0.20975  1
 O  O8  1  0.87983  0.18336  0.56413  1
 O  O9  1  0.60506  0.35345  0.07930  1
 O  O10  1  0.82270  0.57026  0.79025  1
 O  O11  1  0.68293  0.55369  0.34800  1
 O  O12  1  0.59530  0.80847  0.65351  1
 O  O13  1  0.31707  0.44631  0.65200  1
 O  O14  1  0.39494  0.64655  0.92070  1
 P  P1  1  0.54303  0.62149  0.75487  1
 P  P2  1  0.88360  0.77079  0.29783  1
 P  P3  1  0.45697  0.37851  0.24513  1
 P  P4  1  0.11640  0.22921  0.70217  1
 Sr  Sr1  1  0.50000  0.00000  -0.00000  1
