CIF file written using JARVIS-Tools package.
data_Tc7B3
_symmetry_space_group_name_H-M  'P6_3mc'
_cell_length_a       7.50342
_cell_length_b       7.50342
_cell_length_c       4.86858
_cell_angle_alpha    90
_cell_angle_beta     90
_cell_angle_gamma    120

_symmetry_Int_Tables_number  186
_chemical_formula_structural  Tc7B3
_chemical_formula_sum  Tc4B6
_cell_volume  237.38420649526543
_cell_formula_units_Z  2
loop_
  _symmetry_equiv_pos_site_id
 _symmetry_equiv_pos_as_xyz
 1  'x, y, z'
loop_
 _atom_site_type_symbol
 _atom_site_label
 _atom_site_symmetry_multiplicity
 _atom_site_fract_x
 _atom_site_fract_y
 _atom_site_fract_z
 _atom_site_fract_occupancy
 B  B1  1  0.81031  0.62061  0.15950  1
 B  B2  1  0.62061  0.81031  0.65950  1
 B  B3  1  0.37939  0.18969  0.15950  1
 B  B4  1  0.18969  0.37939  0.65950  1
 B  B5  1  0.81031  0.18969  0.15950  1
 B  B6  1  0.18969  0.81031  0.65950  1
 Tc  Tc1  1  0.24712  0.12356  0.74645  1
 Tc  Tc2  1  0.90874  0.45437  0.45176  1
 Tc  Tc3  1  0.45437  0.90874  0.95176  1
 Tc  Tc4  1  0.45437  0.54563  0.95176  1
 Tc  Tc5  1  0.09126  0.54563  0.95176  1
 Tc  Tc6  1  0.87644  0.12356  0.74645  1
 Tc  Tc7  1  0.75288  0.87644  0.24645  1
 Tc  Tc8  1  0.87644  0.75288  0.74645  1
 Tc  Tc9  1  0.12356  0.87644  0.24645  1
 Tc  Tc10  1  0.12356  0.24712  0.24645  1
 Tc  Tc11  1  0.66667  0.33333  0.91491  1
 Tc  Tc12  1  0.33333  0.66667  0.41491  1
 Tc  Tc13  1  0.54563  0.09126  0.45176  1
 Tc  Tc14  1  0.54563  0.45437  0.45176  1
