CIF file written using JARVIS-Tools package.
data_K2CrH2F8
_symmetry_space_group_name_H-M  'P2_1/c'
_cell_length_a       5.26378
_cell_length_b       8.00221
_cell_length_c       8.34443
_cell_angle_alpha    89.9987
_cell_angle_beta     87.6241
_cell_angle_gamma    89.9962

_symmetry_Int_Tables_number  14
_chemical_formula_structural  K2CrH2F8
_chemical_formula_sum  K4Cr2H4F6
_cell_volume  351.1801400408315
_cell_formula_units_Z  2
loop_
  _symmetry_equiv_pos_site_id
 _symmetry_equiv_pos_as_xyz
 1  'x, y, z'
loop_
 _atom_site_type_symbol
 _atom_site_label
 _atom_site_symmetry_multiplicity
 _atom_site_fract_x
 _atom_site_fract_y
 _atom_site_fract_z
 _atom_site_fract_occupancy
 Cr  Cr1  1  -0.00000  -0.00000  -0.00000  1
 Cr  Cr2  1  0.00000  0.50000  0.50000  1
 F  F1  1  0.16243  0.99494  0.80237  1
 F  F2  1  0.09433  0.77306  0.03522  1
 F  F3  1  0.70816  0.60310  0.06119  1
 F  F4  1  0.29184  0.39690  0.93881  1
 F  F5  1  0.83758  0.00506  0.19763  1
 F  F6  1  0.16242  0.50507  0.30237  1
 F  F7  1  0.70855  0.56902  0.41130  1
 F  F8  1  0.29144  0.06902  0.08868  1
 F  F9  1  0.90567  0.27306  0.46479  1
 F  F10  1  0.70815  0.89690  0.56119  1
 F  F11  1  0.29145  0.43098  0.58870  1
 F  F12  1  0.90566  0.22694  0.96478  1
 F  F13  1  0.29185  0.10310  0.43881  1
 F  F14  1  0.70856  0.93098  0.91132  1
 F  F15  1  0.09433  0.72694  0.53521  1
 F  F16  1  0.83758  0.49493  0.69763  1
 H  H1  1  0.12735  0.16343  0.44759  1
 H  H2  1  0.87265  0.66342  0.05242  1
 H  H3  1  0.87265  0.83657  0.55242  1
 H  H4  1  0.12736  0.33658  0.94758  1
 K  K1  1  0.43000  0.68674  0.78662  1
 K  K2  1  0.57000  0.18674  0.71337  1
 K  K3  1  0.43000  0.81326  0.28663  1
 K  K4  1  0.57000  0.31326  0.21337  1
