CIF file written using JARVIS-Tools package.
data_NdB4Os4
_symmetry_space_group_name_H-M  'P4_2/n'
_cell_length_a       7.65778
_cell_length_b       7.65778
_cell_length_c       4.00639
_cell_angle_alpha    90
_cell_angle_beta     90
_cell_angle_gamma    90

_symmetry_Int_Tables_number  86
_chemical_formula_structural  NdB4Os4
_chemical_formula_sum  Nd2B8Os8
_cell_volume  234.9412620959312
_cell_formula_units_Z  2
loop_
  _symmetry_equiv_pos_site_id
 _symmetry_equiv_pos_as_xyz
 1  'x, y, z'
loop_
 _atom_site_type_symbol
 _atom_site_label
 _atom_site_symmetry_multiplicity
 _atom_site_fract_x
 _atom_site_fract_y
 _atom_site_fract_z
 _atom_site_fract_occupancy
 B  B1  1  0.66398  0.77862  0.61114  1
 B  B2  1  0.72138  0.16398  0.11114  1
 B  B3  1  0.77862  0.33602  0.38886  1
 B  B4  1  0.83602  0.72138  0.88886  1
 B  B5  1  0.33602  0.22138  0.61114  1
 B  B6  1  0.22138  0.66398  0.38886  1
 B  B7  1  0.27862  0.83602  0.11114  1
 B  B8  1  0.16398  0.27862  0.88886  1
 Nd  Nd1  1  0.50000  0.50000  0.00000  1
 Nd  Nd2  1  0.00000  0.00000  0.50000  1
 Os  Os1  1  0.89452  0.35214  0.88729  1
 Os  Os2  1  0.35214  0.10548  0.11271  1
 Os  Os3  1  0.64786  0.89452  0.11271  1
 Os  Os4  1  0.60548  0.14786  0.61271  1
 Os  Os5  1  0.10548  0.64786  0.88729  1
 Os  Os6  1  0.14786  0.39452  0.38729  1
 Os  Os7  1  0.85214  0.60548  0.38729  1
 Os  Os8  1  0.39452  0.85214  0.61271  1
