CIF file written using JARVIS-Tools package.
data_LiAgF4
_symmetry_space_group_name_H-M  'Pbcn'
_cell_length_a       4.74366
_cell_length_b       5.50696
_cell_length_c       11.2142
_cell_angle_alpha    90
_cell_angle_beta     90
_cell_angle_gamma    90

_symmetry_Int_Tables_number  60
_chemical_formula_structural  LiAgF4
_chemical_formula_sum  Li4Ag4F6
_cell_volume  292.9513781943974
_cell_formula_units_Z  4
loop_
  _symmetry_equiv_pos_site_id
 _symmetry_equiv_pos_as_xyz
 1  'x, y, z'
loop_
 _atom_site_type_symbol
 _atom_site_label
 _atom_site_symmetry_multiplicity
 _atom_site_fract_x
 _atom_site_fract_y
 _atom_site_fract_z
 _atom_site_fract_occupancy
 Ag  Ag1  1  0.00000  0.75000  0.33409  1
 Ag  Ag2  1  0.00000  0.25000  0.66591  1
 Ag  Ag3  1  0.50000  0.75000  0.83409  1
 Ag  Ag4  1  0.50000  0.25000  0.16591  1
 F  F1  1  0.25395  0.90437  0.45168  1
 F  F2  1  0.77218  0.62267  0.20300  1
 F  F3  1  0.77218  0.12267  0.79700  1
 F  F4  1  0.75395  0.09563  0.04832  1
 F  F5  1  0.22782  0.87733  0.20300  1
 F  F6  1  0.74605  0.59563  0.45168  1
 F  F7  1  0.74605  0.09563  0.54832  1
 F  F8  1  0.75395  0.59563  0.95168  1
 F  F9  1  0.72782  0.62267  0.70300  1
 F  F10  1  0.22782  0.37733  0.79700  1
 F  F11  1  0.27218  0.87733  0.70300  1
 F  F12  1  0.72782  0.12267  0.29700  1
 F  F13  1  0.25395  0.40437  0.54832  1
 F  F14  1  0.24605  0.40437  0.04832  1
 F  F15  1  0.24605  0.90437  0.95168  1
 F  F16  1  0.27218  0.37733  0.29700  1
 Li  Li1  1  0.50000  0.25000  0.43439  1
 Li  Li2  1  0.50000  0.75000  0.56561  1
 Li  Li3  1  0.00000  0.25000  0.93439  1
 Li  Li4  1  0.00000  0.75000  0.06561  1
