CIF file written using JARVIS-Tools package.
data_Li6CuO4
_symmetry_space_group_name_H-M  'P4_2/nmc'
_cell_length_a       4.55302
_cell_length_b       6.566
_cell_length_c       6.56603
_cell_angle_alpha    89.9984
_cell_angle_beta     89.9994
_cell_angle_gamma    89.9998

_symmetry_Int_Tables_number  137
_chemical_formula_structural  Li6CuO4
_chemical_formula_sum  Li2Cu2O8
_cell_volume  196.29221604652037
_cell_formula_units_Z  2
loop_
  _symmetry_equiv_pos_site_id
 _symmetry_equiv_pos_as_xyz
 1  'x, y, z'
loop_
 _atom_site_type_symbol
 _atom_site_label
 _atom_site_symmetry_multiplicity
 _atom_site_fract_x
 _atom_site_fract_y
 _atom_site_fract_z
 _atom_site_fract_occupancy
 Cu  Cu1  1  0.74999  0.24953  0.74952  1
 Cu  Cu2  1  0.25000  0.74953  0.24952  1
 Li  Li1  1  0.74999  0.96742  0.46741  1
 Li  Li2  1  0.74999  0.53161  0.03161  1
 Li  Li3  1  0.69537  0.74953  0.74952  1
 Li  Li4  1  0.19538  0.74952  0.74952  1
 Li  Li5  1  0.74996  0.53162  0.46742  1
 Li  Li6  1  0.75003  0.96742  0.03162  1
 Li  Li7  1  0.24999  0.46742  0.96741  1
 Li  Li8  1  0.24996  0.46742  0.53162  1
 Li  Li9  1  0.30461  0.24953  0.24952  1
 Li  Li10  1  0.80461  0.24952  0.24952  1
 Li  Li11  1  0.24999  0.03161  0.53161  1
 Li  Li12  1  0.25003  0.03162  0.96742  1
 O  O1  1  0.54562  0.24952  0.48149  1
 O  O2  1  0.54563  0.24952  0.01755  1
 O  O3  1  0.95437  0.98149  0.74952  1
 O  O4  1  0.45437  0.74952  0.98149  1
 O  O5  1  0.45436  0.74952  0.51755  1
 O  O6  1  0.95436  0.51756  0.74952  1
 O  O7  1  0.04562  0.48149  0.24952  1
 O  O8  1  0.04563  0.01756  0.24952  1
