CIF file written using JARVIS-Tools package.
data_TiOF
_symmetry_space_group_name_H-M  'P2_1/c'
_cell_length_a       5.07531
_cell_length_b       4.91826
_cell_length_c       5.225
_cell_angle_alpha    90
_cell_angle_beta     102.397
_cell_angle_gamma    90

_symmetry_Int_Tables_number  14
_chemical_formula_structural  TiOF
_chemical_formula_sum  Ti4O4F4
_cell_volume  127.38358461908823
_cell_formula_units_Z  4
loop_
  _symmetry_equiv_pos_site_id
 _symmetry_equiv_pos_as_xyz
 1  'x, y, z'
loop_
 _atom_site_type_symbol
 _atom_site_label
 _atom_site_symmetry_multiplicity
 _atom_site_fract_x
 _atom_site_fract_y
 _atom_site_fract_z
 _atom_site_fract_occupancy
 F  F1  1  0.05067  0.80184  0.86549  1
 F  F2  1  0.05067  0.69816  0.36549  1
 F  F3  1  0.94933  0.30184  0.63451  1
 F  F4  1  0.94933  0.19816  0.13451  1
 O  O1  1  0.44263  0.25151  0.98706  1
 O  O2  1  0.44263  0.24849  0.48706  1
 O  O3  1  0.55737  0.75151  0.51294  1
 O  O4  1  0.55737  0.74849  0.01294  1
 Ti  Ti1  1  0.31272  0.53796  0.70935  1
 Ti  Ti2  1  0.31272  0.96204  0.20935  1
 Ti  Ti3  1  0.68728  0.03796  0.79065  1
 Ti  Ti4  1  0.68728  0.46204  0.29065  1
