CIF file written using JARVIS-Tools package.
data_Rb2NaHoF6
_symmetry_space_group_name_H-M  'I4/m'
_cell_length_a       6.23688
_cell_length_b       6.23687
_cell_length_c       6.2679
_cell_angle_alpha    119.836
_cell_angle_beta     119.836
_cell_angle_gamma    90

_symmetry_Int_Tables_number  87
_chemical_formula_structural  Rb2NaHoF6
_chemical_formula_sum  Rb2NaHoF6
_cell_volume  173.2508889732408
_cell_formula_units_Z  1
loop_
  _symmetry_equiv_pos_site_id
 _symmetry_equiv_pos_as_xyz
 1  'x, y, z'
loop_
 _atom_site_type_symbol
 _atom_site_label
 _atom_site_symmetry_multiplicity
 _atom_site_fract_x
 _atom_site_fract_y
 _atom_site_fract_z
 _atom_site_fract_occupancy
 F  F1  1  0.74335  0.74335  0.48670  1
 F  F2  1  0.25665  0.25665  0.51330  1
 F  F3  1  0.77392  0.71331  0.00000  1
 F  F4  1  0.28669  0.77392  -0.00000  1
 F  F5  1  0.22608  0.28669  -0.00000  1
 F  F6  1  0.71331  0.22608  0.00000  1
 Ho  Ho1  1  0.50000  0.50000  -0.00000  1
 Na  Na1  1  0.00000  0.00000  0.00000  1
 Rb  Rb1  1  0.25000  0.75000  0.50000  1
 Rb  Rb2  1  0.75000  0.25000  0.50000  1
