CIF file written using JARVIS-Tools package.
data_AlF3
_symmetry_space_group_name_H-M  'R-3c'
_cell_length_a       5.06609
_cell_length_b       5.06609
_cell_length_c       5.06609
_cell_angle_alpha    57.5955
_cell_angle_beta     57.5956
_cell_angle_gamma    57.5956

_symmetry_Int_Tables_number  167
_chemical_formula_structural  AlF3
_chemical_formula_sum  Al2F6
_cell_volume  86.85789312303416
_cell_formula_units_Z  2
loop_
  _symmetry_equiv_pos_site_id
 _symmetry_equiv_pos_as_xyz
 1  'x, y, z'
loop_
 _atom_site_type_symbol
 _atom_site_label
 _atom_site_symmetry_multiplicity
 _atom_site_fract_x
 _atom_site_fract_y
 _atom_site_fract_z
 _atom_site_fract_occupancy
 Al  Al1  1  0.50000  0.50000  0.50000  1
 Al  Al2  1  0.00000  0.00000  0.00000  1
 F  F1  1  0.65311  0.25000  0.84689  1
 F  F2  1  0.25000  0.84689  0.65311  1
 F  F3  1  0.15311  0.34689  0.75000  1
 F  F4  1  0.75000  0.15311  0.34689  1
 F  F5  1  0.34689  0.75000  0.15311  1
 F  F6  1  0.84689  0.65311  0.25000  1
