CIF file written using JARVIS-Tools package.
data_BMo
_symmetry_space_group_name_H-M  'I4_1/amd'
_cell_length_a       3.13245
_cell_length_b       3.13244
_cell_length_c       8.81377
_cell_angle_alpha    100.236
_cell_angle_beta     100.236
_cell_angle_gamma    90

_symmetry_Int_Tables_number  141
_chemical_formula_structural  BMo
_chemical_formula_sum  B4Mo4
_cell_volume  83.7069518364689
_cell_formula_units_Z  4
loop_
  _symmetry_equiv_pos_site_id
 _symmetry_equiv_pos_as_xyz
 1  'x, y, z'
loop_
 _atom_site_type_symbol
 _atom_site_label
 _atom_site_symmetry_multiplicity
 _atom_site_fract_x
 _atom_site_fract_y
 _atom_site_fract_z
 _atom_site_fract_occupancy
 B  B1  1  0.47013  0.72013  0.44027  1
 B  B2  1  0.22013  0.97013  0.94027  1
 B  B3  1  0.52987  0.27987  0.55973  1
 B  B4  1  0.77987  0.02987  0.05973  1
 Mo  Mo1  1  0.32212  0.57212  0.14424  1
 Mo  Mo2  1  0.07212  0.82212  0.64424  1
 Mo  Mo3  1  0.67788  0.42788  0.85576  1
 Mo  Mo4  1  0.92788  0.17788  0.35576  1
