CIF file written using JARVIS-Tools package.
data_K2PbS2O8
_symmetry_space_group_name_H-M  'R-3m'
_cell_length_a       7.61099
_cell_length_b       7.61098
_cell_length_c       7.61098
_cell_angle_alpha    42.4974
_cell_angle_beta     42.4974
_cell_angle_gamma    42.4975

_symmetry_Int_Tables_number  166
_chemical_formula_structural  K2PbS2O8
_chemical_formula_sum  K2PbS2O8
_cell_volume  182.1897796296716
_cell_formula_units_Z  1
loop_
  _symmetry_equiv_pos_site_id
 _symmetry_equiv_pos_as_xyz
 1  'x, y, z'
loop_
 _atom_site_type_symbol
 _atom_site_label
 _atom_site_symmetry_multiplicity
 _atom_site_fract_x
 _atom_site_fract_y
 _atom_site_fract_z
 _atom_site_fract_occupancy
 K  K1  1  0.79879  0.79879  0.79879  1
 K  K2  1  0.20121  0.20121  0.20121  1
 O  O1  1  0.71995  0.71995  0.27889  1
 O  O2  1  0.71995  0.27889  0.71995  1
 O  O3  1  0.27889  0.71995  0.71995  1
 O  O4  1  0.72111  0.28005  0.28005  1
 O  O5  1  0.28005  0.28005  0.72111  1
 O  O6  1  0.33123  0.33123  0.33123  1
 O  O7  1  0.66877  0.66877  0.66877  1
 O  O8  1  0.28005  0.72111  0.28005  1
 Pb  Pb1  1  0.00000  0.00000  0.00000  1
 S  S1  1  0.59749  0.59749  0.59749  1
 S  S2  1  0.40251  0.40251  0.40251  1
