CIF file written using JARVIS-Tools package.
data_ScSiPt2
_symmetry_space_group_name_H-M  'Cmcm'
_cell_length_a       3.70269
_cell_length_b       5.32219
_cell_length_c       7.01652
_cell_angle_alpha    90
_cell_angle_beta     90
_cell_angle_gamma    110.356

_symmetry_Int_Tables_number  63
_chemical_formula_structural  ScSiPt2
_chemical_formula_sum  Sc2Si2Pt4
_cell_volume  129.63536515175892
_cell_formula_units_Z  2
loop_
  _symmetry_equiv_pos_site_id
 _symmetry_equiv_pos_as_xyz
 1  'x, y, z'
loop_
 _atom_site_type_symbol
 _atom_site_label
 _atom_site_symmetry_multiplicity
 _atom_site_fract_x
 _atom_site_fract_y
 _atom_site_fract_z
 _atom_site_fract_occupancy
 Pt  Pt1  1  0.36333  0.72665  0.54744  1
 Pt  Pt2  1  0.63667  0.27335  0.45256  1
 Pt  Pt3  1  0.63667  0.27335  0.04744  1
 Pt  Pt4  1  0.36333  0.72665  0.95256  1
 Sc  Sc1  1  0.95284  0.90567  0.25000  1
 Sc  Sc2  1  0.04716  0.09433  0.75000  1
 Si  Si1  1  0.23370  0.46741  0.25000  1
 Si  Si2  1  0.76630  0.53259  0.75000  1
