CIF file written using JARVIS-Tools package.
data_Co2P
_symmetry_space_group_name_H-M  'P-62m'
_cell_length_a       5.74384
_cell_length_b       5.74384
_cell_length_c       3.41739
_cell_angle_alpha    90
_cell_angle_beta     90
_cell_angle_gamma    120

_symmetry_Int_Tables_number  189
_chemical_formula_structural  Co2P
_chemical_formula_sum  Co6P3
_cell_volume  97.64051105691237
_cell_formula_units_Z  3
loop_
  _symmetry_equiv_pos_site_id
 _symmetry_equiv_pos_as_xyz
 1  'x, y, z'
loop_
 _atom_site_type_symbol
 _atom_site_label
 _atom_site_symmetry_multiplicity
 _atom_site_fract_x
 _atom_site_fract_y
 _atom_site_fract_z
 _atom_site_fract_occupancy
 Co  Co1  1  -0.00000  0.60266  0.50000  1
 Co  Co2  1  0.60266  -0.00000  0.50000  1
 Co  Co3  1  0.39734  0.39734  0.50000  1
 Co  Co4  1  0.74037  0.74037  0.00000  1
 Co  Co5  1  0.25963  -0.00000  0.00000  1
 Co  Co6  1  -0.00000  0.25963  0.00000  1
 P  P1  1  0.00000  0.00000  0.50000  1
 P  P2  1  0.66667  0.33333  0.00000  1
 P  P3  1  0.33333  0.66667  0.00000  1
