CIF file written using JARVIS-Tools package.
data_K3NaFeCl6
_symmetry_space_group_name_H-M  'R-3m'
_cell_length_a       6.75368
_cell_length_b       8.5579
_cell_length_c       8.55791
_cell_angle_alpha    94.8646
_cell_angle_beta     58.2566
_cell_angle_gamma    58.2566

_symmetry_Int_Tables_number  166
_chemical_formula_structural  K3NaFeCl6
_chemical_formula_sum  K3NaFeCl6
_cell_volume  309.7887685376264
_cell_formula_units_Z  1
loop_
  _symmetry_equiv_pos_site_id
 _symmetry_equiv_pos_as_xyz
 1  'x, y, z'
loop_
 _atom_site_type_symbol
 _atom_site_label
 _atom_site_symmetry_multiplicity
 _atom_site_fract_x
 _atom_site_fract_y
 _atom_site_fract_z
 _atom_site_fract_occupancy
 Cl  Cl1  1  0.09066  0.72167  0.72167  1
 Cl  Cl2  1  0.46600  0.00000  0.72167  1
 Cl  Cl3  1  0.46600  0.72167  0.00000  1
 Cl  Cl4  1  0.53400  -0.00000  0.27833  1
 Cl  Cl5  1  0.53400  0.27833  -0.00000  1
 Cl  Cl6  1  0.90934  0.27833  0.27833  1
 Fe  Fe1  1  0.50000  -0.00000  -0.00000  1
 K  K1  1  -0.00000  0.50000  0.50000  1
 K  K2  1  -0.00000  0.00000  0.50000  1
 K  K3  1  -0.00000  0.50000  0.00000  1
 Na  Na1  1  0.00000  0.00000  0.00000  1
