CIF file written using JARVIS-Tools package.
data_YTa3O9
_symmetry_space_group_name_H-M  'P2_1/m'
_cell_length_a       5.28499
_cell_length_b       7.49237
_cell_length_c       8.27141
_cell_angle_alpha    90
_cell_angle_beta     92.4259
_cell_angle_gamma    90

_symmetry_Int_Tables_number  11
_chemical_formula_structural  YTa3O9
_chemical_formula_sum  Y2Ta6O8
_cell_volume  327.22999213186716
_cell_formula_units_Z  2
loop_
  _symmetry_equiv_pos_site_id
 _symmetry_equiv_pos_as_xyz
 1  'x, y, z'
loop_
 _atom_site_type_symbol
 _atom_site_label
 _atom_site_symmetry_multiplicity
 _atom_site_fract_x
 _atom_site_fract_y
 _atom_site_fract_z
 _atom_site_fract_occupancy
 O  O1  1  0.32699  0.44233  0.11845  1
 O  O2  1  0.89761  0.25000  0.02184  1
 O  O3  1  0.85432  0.93463  0.21635  1
 O  O4  1  0.85432  0.56537  0.21635  1
 O  O5  1  0.74164  0.95610  0.53353  1
 O  O6  1  0.14568  0.43463  0.78365  1
 O  O7  1  0.66795  0.25000  0.34592  1
 O  O8  1  0.67301  0.94233  0.88155  1
 O  O9  1  0.74164  0.54390  0.53353  1
 O  O10  1  0.57804  0.25000  0.68833  1
 O  O11  1  0.42196  0.75000  0.31167  1
 O  O12  1  0.32699  0.05767  0.11845  1
 O  O13  1  0.10239  0.75000  0.97816  1
 O  O14  1  0.33205  0.75000  0.65408  1
 O  O15  1  0.25836  0.04390  0.46647  1
 O  O16  1  0.25836  0.45610  0.46647  1
 O  O17  1  0.14568  0.06537  0.78365  1
 O  O18  1  0.67301  0.55767  0.88155  1
 Ta  Ta1  1  0.47180  0.50774  0.69778  1
 Ta  Ta2  1  0.47180  0.99226  0.69778  1
 Ta  Ta3  1  0.52820  0.00774  0.30222  1
 Ta  Ta4  1  0.52820  0.49226  0.30222  1
 Ta  Ta5  1  0.00000  0.50000  0.00000  1
 Ta  Ta6  1  0.00000  0.00000  0.00000  1
 Y  Y1  1  0.03351  0.75000  0.43505  1
 Y  Y2  1  0.96649  0.25000  0.56495  1
