CIF file written using JARVIS-Tools package.
data_BePd3
_symmetry_space_group_name_H-M  'Cmcm'
_cell_length_a       2.87416
_cell_length_b       5.05977
_cell_length_c       7.66459
_cell_angle_alpha    90
_cell_angle_beta     90
_cell_angle_gamma    106.5

_symmetry_Int_Tables_number  63
_chemical_formula_structural  BePd3
_chemical_formula_sum  Be2Pd6
_cell_volume  106.87256598496147
_cell_formula_units_Z  2
loop_
  _symmetry_equiv_pos_site_id
 _symmetry_equiv_pos_as_xyz
 1  'x, y, z'
loop_
 _atom_site_type_symbol
 _atom_site_label
 _atom_site_symmetry_multiplicity
 _atom_site_fract_x
 _atom_site_fract_y
 _atom_site_fract_z
 _atom_site_fract_occupancy
 Be  Be1  1  0.74707  0.49415  0.75000  1
 Be  Be2  1  0.25293  0.50585  0.25000  1
 Pd  Pd1  1  0.43295  0.86589  0.75000  1
 Pd  Pd2  1  0.56705  0.13411  0.25000  1
 Pd  Pd3  1  0.13615  0.27231  0.93877  1
 Pd  Pd4  1  0.86385  0.72769  0.06123  1
 Pd  Pd5  1  0.86385  0.72769  0.43877  1
 Pd  Pd6  1  0.13615  0.27231  0.56123  1
