CIF file written using JARVIS-Tools package.
data_Ca2PbO4
_symmetry_space_group_name_H-M  'Pbam'
_cell_length_a       3.41617
_cell_length_b       5.87443
_cell_length_c       9.82844
_cell_angle_alpha    90
_cell_angle_beta     90
_cell_angle_gamma    90

_symmetry_Int_Tables_number  55
_chemical_formula_structural  Ca2PbO4
_chemical_formula_sum  Ca4Pb2O8
_cell_volume  197.2378347808493
_cell_formula_units_Z  2
loop_
  _symmetry_equiv_pos_site_id
 _symmetry_equiv_pos_as_xyz
 1  'x, y, z'
loop_
 _atom_site_type_symbol
 _atom_site_label
 _atom_site_symmetry_multiplicity
 _atom_site_fract_x
 _atom_site_fract_y
 _atom_site_fract_z
 _atom_site_fract_occupancy
 Ca  Ca1  1  0.50000  0.42686  0.81833  1
 Ca  Ca2  1  0.50000  0.57314  0.18167  1
 Ca  Ca3  1  0.50000  0.92686  0.68167  1
 Ca  Ca4  1  0.50000  0.07314  0.31833  1
 O  O1  1  0.00000  0.14043  0.79735  1
 O  O2  1  0.00000  0.85957  0.20265  1
 O  O3  1  0.00000  0.64043  0.70265  1
 O  O4  1  0.00000  0.35957  0.29735  1
 O  O5  1  0.50000  0.25745  0.54776  1
 O  O6  1  0.50000  0.74255  0.45224  1
 O  O7  1  0.50000  0.24255  0.04776  1
 O  O8  1  0.50000  0.75745  0.95224  1
 Pb  Pb1  1  0.00000  0.50000  0.50000  1
 Pb  Pb2  1  0.00000  0.00000  0.00000  1
