CIF file written using JARVIS-Tools package.
data_K3NpH6O8
_symmetry_space_group_name_H-M  'P2_1/c'
_cell_length_a       7.58305
_cell_length_b       8.26421
_cell_length_c       7.8155
_cell_angle_alpha    90
_cell_angle_beta     117.073
_cell_angle_gamma    90

_symmetry_Int_Tables_number  14
_chemical_formula_structural  K3NpH6O8
_chemical_formula_sum  K6Np2H2O6
_cell_volume  436.1141321597118
_cell_formula_units_Z  2
loop_
  _symmetry_equiv_pos_site_id
 _symmetry_equiv_pos_as_xyz
 1  'x, y, z'
loop_
 _atom_site_type_symbol
 _atom_site_label
 _atom_site_symmetry_multiplicity
 _atom_site_fract_x
 _atom_site_fract_y
 _atom_site_fract_z
 _atom_site_fract_occupancy
 H  H1  1  0.35294  0.03309  0.82438  1
 H  H2  1  0.57388  0.97641  0.86978  1
 H  H3  1  0.17476  0.20827  0.32539  1
 H  H4  1  0.82524  0.70827  0.17461  1
 H  H5  1  0.82524  0.79173  0.67461  1
 H  H6  1  0.35294  0.46691  0.32438  1
 H  H7  1  0.42612  0.47641  0.63022  1
 H  H8  1  0.64706  0.53309  0.67562  1
 H  H9  1  0.57388  0.52359  0.36978  1
 H  H10  1  0.42612  0.02359  0.13022  1
 H  H11  1  0.64706  0.96691  0.17562  1
 H  H12  1  0.17476  0.29173  0.82539  1
 K  K1  1  -0.00000  0.00000  0.50000  1
 K  K2  1  0.58491  0.30772  0.04097  1
 K  K3  1  0.00000  0.50000  0.00000  1
 K  K4  1  0.41509  0.69228  0.95903  1
 K  K5  1  0.41509  0.80772  0.45903  1
 K  K6  1  0.58491  0.19228  0.54097  1
 Np  Np1  1  -0.00000  0.50000  0.50000  1
 Np  Np2  1  0.00000  0.00000  0.00000  1
 O  O1  1  0.44238  0.00782  0.76418  1
 O  O2  1  0.80710  0.59398  0.20298  1
 O  O3  1  0.19290  0.40602  0.79702  1
 O  O4  1  0.20101  0.42174  0.41638  1
 O  O5  1  0.13816  0.69858  0.57620  1
 O  O6  1  0.79899  0.57826  0.58362  1
 O  O7  1  0.19290  0.09398  0.29702  1
 O  O8  1  0.79899  0.92174  0.08362  1
 O  O9  1  0.86184  0.19858  0.92380  1
 O  O10  1  0.80710  0.90602  0.70298  1
 O  O11  1  0.86184  0.30142  0.42380  1
 O  O12  1  0.44238  0.49218  0.26418  1
 O  O13  1  0.13816  0.80142  0.07620  1
 O  O14  1  0.55762  0.50782  0.73582  1
 O  O15  1  0.20101  0.07826  0.91638  1
 O  O16  1  0.55762  0.99218  0.23582  1
