CIF file written using JARVIS-Tools package.
data_KSiBiS4
_symmetry_space_group_name_H-M  'P2_1/c'
_cell_length_a       6.54603
_cell_length_b       6.71277
_cell_length_c       17.0445
_cell_angle_alpha    90
_cell_angle_beta     107.674
_cell_angle_gamma    90

_symmetry_Int_Tables_number  14
_chemical_formula_structural  KSiBiS4
_chemical_formula_sum  K4Si4Bi4S6
_cell_volume  713.6158074409204
_cell_formula_units_Z  4
loop_
  _symmetry_equiv_pos_site_id
 _symmetry_equiv_pos_as_xyz
 1  'x, y, z'
loop_
 _atom_site_type_symbol
 _atom_site_label
 _atom_site_symmetry_multiplicity
 _atom_site_fract_x
 _atom_site_fract_y
 _atom_site_fract_z
 _atom_site_fract_occupancy
 Bi  Bi1  1  0.73902  0.71194  0.27908  1
 Bi  Bi2  1  0.73902  0.78806  0.77908  1
 Bi  Bi3  1  0.26098  0.28806  0.72092  1
 Bi  Bi4  1  0.26098  0.21194  0.22092  1
 K  K1  1  0.21989  0.24688  0.96510  1
 K  K2  1  0.21989  0.25312  0.46510  1
 K  K3  1  0.78011  0.75312  0.03490  1
 K  K4  1  0.78011  0.74688  0.53490  1
 S  S1  1  0.90348  0.30924  0.28161  1
 S  S2  1  0.48096  0.50322  0.13074  1
 S  S3  1  0.51904  0.00322  0.36926  1
 S  S4  1  0.09024  0.75754  0.42134  1
 S  S5  1  0.09024  0.74246  0.92134  1
 S  S6  1  0.90976  0.24246  0.57866  1
 S  S7  1  0.48096  0.99678  0.63074  1
 S  S8  1  0.51904  0.49678  0.86926  1
 S  S9  1  0.48765  0.99569  0.86082  1
 S  S10  1  0.09652  0.69076  0.71839  1
 S  S11  1  0.51235  0.00431  0.13918  1
 S  S12  1  0.48765  0.50431  0.36082  1
 S  S13  1  0.90976  0.25754  0.07866  1
 S  S14  1  0.90348  0.19076  0.78161  1
 S  S15  1  0.51235  0.49569  0.63918  1
 S  S16  1  0.09652  0.80924  0.21839  1
 Si  Si1  1  0.29267  0.76589  0.34454  1
 Si  Si2  1  0.70733  0.26589  0.15546  1
 Si  Si3  1  0.70733  0.23411  0.65546  1
 Si  Si4  1  0.29267  0.73411  0.84454  1
