CIF file written using JARVIS-Tools package.
data_Sm3IrO7
_symmetry_space_group_name_H-M  'Cmcm'
_cell_length_a       6.54856
_cell_length_b       6.54856
_cell_length_c       7.48441
_cell_angle_alpha    90
_cell_angle_beta     90
_cell_angle_gamma    111.149

_symmetry_Int_Tables_number  63
_chemical_formula_structural  Sm3IrO7
_chemical_formula_sum  Sm6Ir2O4
_cell_volume  299.3414609247691
_cell_formula_units_Z  2
loop_
  _symmetry_equiv_pos_site_id
 _symmetry_equiv_pos_as_xyz
 1  'x, y, z'
loop_
 _atom_site_type_symbol
 _atom_site_label
 _atom_site_symmetry_multiplicity
 _atom_site_fract_x
 _atom_site_fract_y
 _atom_site_fract_z
 _atom_site_fract_occupancy
 Ir  Ir1  1  0.50000  0.50000  0.50000  1
 Ir  Ir2  1  0.50000  0.50000  0.00000  1
 O  O1  1  0.81755  0.56298  0.03974  1
 O  O2  1  0.40924  0.40924  0.25000  1
 O  O3  1  0.10658  0.84230  0.75000  1
 O  O4  1  0.89342  0.15770  0.25000  1
 O  O5  1  0.84230  0.10658  0.75000  1
 O  O6  1  0.15770  0.89342  0.25000  1
 O  O7  1  0.18245  0.43702  0.96026  1
 O  O8  1  0.81755  0.56298  0.46026  1
 O  O9  1  0.43702  0.18245  0.96026  1
 O  O10  1  0.18245  0.43702  0.53974  1
 O  O11  1  0.56298  0.81755  0.46026  1
 O  O12  1  0.56298  0.81755  0.03974  1
 O  O13  1  0.43702  0.18245  0.53974  1
 O  O14  1  0.59076  0.59076  0.75000  1
 Sm  Sm1  1  0.00000  0.00000  0.00000  1
 Sm  Sm2  1  0.00000  0.00000  0.50000  1
 Sm  Sm3  1  0.92049  0.47403  0.75000  1
 Sm  Sm4  1  0.07951  0.52597  0.25000  1
 Sm  Sm5  1  0.47403  0.92049  0.75000  1
 Sm  Sm6  1  0.52597  0.07951  0.25000  1
