CIF file written using JARVIS-Tools package.
data_TmNi
_symmetry_space_group_name_H-M  'Pnma'
_cell_length_a       4.14729
_cell_length_b       5.31073
_cell_length_c       6.84431
_cell_angle_alpha    90
_cell_angle_beta     90
_cell_angle_gamma    90

_symmetry_Int_Tables_number  62
_chemical_formula_structural  TmNi
_chemical_formula_sum  Tm4Ni4
_cell_volume  150.74688254069213
_cell_formula_units_Z  4
loop_
  _symmetry_equiv_pos_site_id
 _symmetry_equiv_pos_as_xyz
 1  'x, y, z'
loop_
 _atom_site_type_symbol
 _atom_site_label
 _atom_site_symmetry_multiplicity
 _atom_site_fract_x
 _atom_site_fract_y
 _atom_site_fract_z
 _atom_site_fract_occupancy
 Ni  Ni1  1  0.25000  0.63375  0.03838  1
 Ni  Ni2  1  0.75000  0.36625  0.96162  1
 Ni  Ni3  1  0.75000  0.13375  0.46162  1
 Ni  Ni4  1  0.25000  0.86625  0.53838  1
 Tm  Tm1  1  0.25000  0.13532  0.18065  1
 Tm  Tm2  1  0.75000  0.86468  0.81935  1
 Tm  Tm3  1  0.75000  0.63532  0.31935  1
 Tm  Tm4  1  0.25000  0.36468  0.68065  1
