CIF file written using JARVIS-Tools package.
data_Na2Au
_symmetry_space_group_name_H-M  'I4/mcm'
_cell_length_a       5.64533
_cell_length_b       5.88511
_cell_length_c       5.88511
_cell_angle_alpha    76.7004
_cell_angle_beta     61.3389
_cell_angle_gamma    61.3388

_symmetry_Int_Tables_number  140
_chemical_formula_structural  Na2Au
_chemical_formula_sum  Na4Au2
_cell_volume  150.5445560987422
_cell_formula_units_Z  2
loop_
  _symmetry_equiv_pos_site_id
 _symmetry_equiv_pos_as_xyz
 1  'x, y, z'
loop_
 _atom_site_type_symbol
 _atom_site_label
 _atom_site_symmetry_multiplicity
 _atom_site_fract_x
 _atom_site_fract_y
 _atom_site_fract_z
 _atom_site_fract_occupancy
 Au  Au1  1  0.75000  0.00000  0.00000  1
 Au  Au2  1  0.25000  0.00000  0.00000  1
 Na  Na1  1  0.82833  0.50000  0.84335  1
 Na  Na2  1  0.67167  0.15665  0.50000  1
 Na  Na3  1  0.17167  0.50000  0.15665  1
 Na  Na4  1  0.32833  0.84335  0.50000  1
