CIF file written using JARVIS-Tools package.
data_Tl9SbTe6
_symmetry_space_group_name_H-M  'I4'
_cell_length_a       8.92474
_cell_length_b       8.92481
_cell_length_c       9.19921
_cell_angle_alpha    119.018
_cell_angle_beta     119.018
_cell_angle_gamma    90.0003

_symmetry_Int_Tables_number  79
_chemical_formula_structural  Tl9SbTe6
_chemical_formula_sum  Tl9SbTe6
_cell_volume  533.1308023721928
_cell_formula_units_Z  1
loop_
  _symmetry_equiv_pos_site_id
 _symmetry_equiv_pos_as_xyz
 1  'x, y, z'
loop_
 _atom_site_type_symbol
 _atom_site_label
 _atom_site_symmetry_multiplicity
 _atom_site_fract_x
 _atom_site_fract_y
 _atom_site_fract_z
 _atom_site_fract_occupancy
 Sb  Sb1  1  0.50044  0.50044  0.00088  1
 Te  Te1  1  0.72554  0.72554  0.45109  1
 Te  Te2  1  0.64246  0.81583  0.98495  1
 Te  Te3  1  0.16913  0.64244  0.98494  1
 Te  Te4  1  0.25010  0.25010  0.50019  1
 Te  Te5  1  0.81584  0.34252  0.98499  1
 Te  Te6  1  0.34250  0.16914  0.98496  1
 Tl  Tl1  1  0.01092  0.80301  0.30144  1
 Tl  Tl2  1  0.48225  0.98024  0.66796  1
 Tl  Tl3  1  0.99511  0.99512  0.99026  1
 Tl  Tl4  1  0.18572  0.68773  0.66794  1
 Tl  Tl5  1  0.29053  0.49845  0.30145  1
 Tl  Tl6  1  0.80302  0.29052  0.30145  1
 Tl  Tl7  1  0.68773  0.48222  0.66794  1
 Tl  Tl8  1  0.98020  0.18570  0.66795  1
 Tl  Tl9  1  0.49841  0.01091  0.30141  1
