CIF file written using JARVIS-Tools package.
data_ZrSnRh
_symmetry_space_group_name_H-M  'P-62c'
_cell_length_a       7.39633
_cell_length_b       7.39633
_cell_length_c       7.31039
_cell_angle_alpha    90
_cell_angle_beta     90
_cell_angle_gamma    120

_symmetry_Int_Tables_number  190
_chemical_formula_structural  ZrSnRh
_chemical_formula_sum  Zr6Sn6Rh6
_cell_volume  346.3402736533793
_cell_formula_units_Z  6
loop_
  _symmetry_equiv_pos_site_id
 _symmetry_equiv_pos_as_xyz
 1  'x, y, z'
loop_
 _atom_site_type_symbol
 _atom_site_label
 _atom_site_symmetry_multiplicity
 _atom_site_fract_x
 _atom_site_fract_y
 _atom_site_fract_z
 _atom_site_fract_occupancy
 Rh  Rh1  1  0.00000  0.00000  0.75000  1
 Rh  Rh2  1  0.66667  0.33333  0.53566  1
 Rh  Rh3  1  0.66667  0.33333  0.96434  1
 Rh  Rh4  1  0.33333  0.66667  0.46434  1
 Rh  Rh5  1  0.33333  0.66667  0.03566  1
 Rh  Rh6  1  0.00000  0.00000  0.25000  1
 Sn  Sn1  1  0.27062  -0.00000  0.00000  1
 Sn  Sn2  1  -0.00000  0.27062  0.50000  1
 Sn  Sn3  1  0.72938  0.72938  0.50000  1
 Sn  Sn4  1  0.72938  0.72938  0.00000  1
 Sn  Sn5  1  0.27062  -0.00000  0.50000  1
 Sn  Sn6  1  -0.00000  0.27062  0.00000  1
 Zr  Zr1  1  0.38836  0.40605  0.75000  1
 Zr  Zr2  1  0.01769  0.61164  0.75000  1
 Zr  Zr3  1  0.59395  0.98231  0.75000  1
 Zr  Zr4  1  0.40605  0.38836  0.25000  1
 Zr  Zr5  1  0.98231  0.59395  0.25000  1
 Zr  Zr6  1  0.61164  0.01769  0.25000  1
