CIF file written using JARVIS-Tools package.
data_TbAlNi
_symmetry_space_group_name_H-M  'P-62m'
_cell_length_a       6.9994
_cell_length_b       6.9994
_cell_length_c       3.87492
_cell_angle_alpha    90
_cell_angle_beta     90
_cell_angle_gamma    120

_symmetry_Int_Tables_number  189
_chemical_formula_structural  TbAlNi
_chemical_formula_sum  Tb3Al3Ni3
_cell_volume  164.40478193982835
_cell_formula_units_Z  3
loop_
  _symmetry_equiv_pos_site_id
 _symmetry_equiv_pos_as_xyz
 1  'x, y, z'
loop_
 _atom_site_type_symbol
 _atom_site_label
 _atom_site_symmetry_multiplicity
 _atom_site_fract_x
 _atom_site_fract_y
 _atom_site_fract_z
 _atom_site_fract_occupancy
 Al  Al1  1  0.00000  0.23515  0.00000  1
 Al  Al2  1  0.23515  0.00000  0.00000  1
 Al  Al3  1  0.76485  0.76485  0.00000  1
 Ni  Ni1  1  0.00000  0.00000  0.50000  1
 Ni  Ni2  1  0.33333  0.66667  0.00000  1
 Ni  Ni3  1  0.66667  0.33333  0.00000  1
 Tb  Tb1  1  0.00000  0.58230  0.50000  1
 Tb  Tb2  1  0.58230  0.00000  0.50000  1
 Tb  Tb3  1  0.41770  0.41770  0.50000  1
