CIF file written using JARVIS-Tools package.
data_NbNO
_symmetry_space_group_name_H-M  'I4_1md'
_cell_length_a       3.97778
_cell_length_b       5.91127
_cell_length_c       3.97781
_cell_angle_alpha    70.334
_cell_angle_beta     90
_cell_angle_gamma    109.661

_symmetry_Int_Tables_number  109
_chemical_formula_structural  NbNO
_chemical_formula_sum  Nb2N2O2
_cell_volume  82.26328172223131
_cell_formula_units_Z  2
loop_
  _symmetry_equiv_pos_site_id
 _symmetry_equiv_pos_as_xyz
 1  'x, y, z'
loop_
 _atom_site_type_symbol
 _atom_site_label
 _atom_site_symmetry_multiplicity
 _atom_site_fract_x
 _atom_site_fract_y
 _atom_site_fract_z
 _atom_site_fract_occupancy
 N  N1  1  0.95321  0.90642  0.54676  1
 N  N2  1  0.20321  0.40642  0.79684  1
 Nb  Nb1  1  0.01645  0.03290  0.98354  1
 Nb  Nb2  1  0.76645  0.53290  0.73359  1
 O  O1  1  0.78034  0.56068  0.21969  1
 O  O2  1  0.53034  0.06068  0.96958  1
