CIF file written using JARVIS-Tools package.
data_Ca3SnS5
_symmetry_space_group_name_H-M  'P6_3/mcm'
_cell_length_a       8.04124
_cell_length_b       8.04124
_cell_length_c       7.10412
_cell_angle_alpha    90
_cell_angle_beta     90
_cell_angle_gamma    120

_symmetry_Int_Tables_number  193
_chemical_formula_structural  Ca3SnS5
_chemical_formula_sum  Ca6Sn2S0
_cell_volume  397.8205089212664
_cell_formula_units_Z  2
loop_
  _symmetry_equiv_pos_site_id
 _symmetry_equiv_pos_as_xyz
 1  'x, y, z'
loop_
 _atom_site_type_symbol
 _atom_site_label
 _atom_site_symmetry_multiplicity
 _atom_site_fract_x
 _atom_site_fract_y
 _atom_site_fract_z
 _atom_site_fract_occupancy
 Ca  Ca1  1  0.58059  0.58059  0.66324  1
 Ca  Ca2  1  -0.00000  0.41941  0.66324  1
 Ca  Ca3  1  0.41941  -0.00000  0.66324  1
 Ca  Ca4  1  0.41941  0.41941  0.16324  1
 Ca  Ca5  1  0.00000  0.58059  0.16324  1
 Ca  Ca6  1  0.58059  0.00000  0.16324  1
 S  S1  1  0.76103  0.76103  0.16322  1
 S  S2  1  0.33333  0.66667  0.41321  1
 S  S3  1  0.33333  0.66667  0.91321  1
 S  S4  1  0.66667  0.33333  0.41321  1
 S  S5  1  0.76103  -0.00000  0.66322  1
 S  S6  1  0.23897  0.00000  0.16322  1
 S  S7  1  -0.00000  0.76103  0.66322  1
 S  S8  1  0.66667  0.33333  0.91321  1
 S  S9  1  0.23897  0.23897  0.66322  1
 S  S10  1  0.00000  0.23897  0.16322  1
 Sn  Sn1  1  0.00000  0.00000  0.91324  1
 Sn  Sn2  1  0.00000  0.00000  0.41324  1
