CIF file written using JARVIS-Tools package.
data_LiBiF5
_symmetry_space_group_name_H-M  'I-4'
_cell_length_a       4.41989
_cell_length_b       5.32603
_cell_length_c       5.32605
_cell_angle_alpha    80.087
_cell_angle_beta     65.486
_cell_angle_gamma    65.4866

_symmetry_Int_Tables_number  82
_chemical_formula_structural  LiBiF5
_chemical_formula_sum  LiBiF5
_cell_volume  103.79384198203807
_cell_formula_units_Z  1
loop_
  _symmetry_equiv_pos_site_id
 _symmetry_equiv_pos_as_xyz
 1  'x, y, z'
loop_
 _atom_site_type_symbol
 _atom_site_label
 _atom_site_symmetry_multiplicity
 _atom_site_fract_x
 _atom_site_fract_y
 _atom_site_fract_z
 _atom_site_fract_occupancy
 Bi  Bi1  1  0.99999  -0.00001  -0.00001  1
 F  F1  1  0.49998  0.00003  -0.00001  1
 F  F2  1  0.91609  0.80262  0.39687  1
 F  F3  1  0.28130  0.60311  0.80265  1
 F  F4  1  0.68705  0.39686  0.19739  1
 F  F5  1  0.11558  0.19738  0.60313  1
 Li  Li1  1  0.25001  0.50001  0.49998  1
