CIF file written using JARVIS-Tools package.
data_TlInAs2O7
_symmetry_space_group_name_H-M  'P-1'
_cell_length_a       7.90299
_cell_length_b       8.66454
_cell_length_c       10.5705
_cell_angle_alpha    91.3944
_cell_angle_beta     89.9047
_cell_angle_gamma    105.534

_symmetry_Int_Tables_number  2
_chemical_formula_structural  TlInAs2O7
_chemical_formula_sum  Tl4In4As8O28
_cell_volume  697.1629541928806
_cell_formula_units_Z  4
loop_
  _symmetry_equiv_pos_site_id
 _symmetry_equiv_pos_as_xyz
 1  'x, y, z'
loop_
 _atom_site_type_symbol
 _atom_site_label
 _atom_site_symmetry_multiplicity
 _atom_site_fract_x
 _atom_site_fract_y
 _atom_site_fract_z
 _atom_site_fract_occupancy
 As  As1  1  0.06576  0.32752  0.64395  1
 As  As2  1  0.93424  0.67248  0.35605  1
 As  As3  1  0.62985  0.33280  0.10070  1
 As  As4  1  0.37015  0.66720  0.89930  1
 As  As5  1  0.66061  0.85483  0.43064  1
 As  As6  1  0.33939  0.14517  0.56936  1
 As  As7  1  0.04671  0.79652  0.86682  1
 As  As8  1  0.95329  0.20348  0.13318  1
 In  In1  1  0.73353  0.77214  0.10131  1
 In  In2  1  0.26279  0.73823  0.59349  1
 In  In3  1  0.73721  0.26177  0.40651  1
 In  In4  1  0.26647  0.22786  0.89869  1
 O  O1  1  0.51052  0.71067  0.50952  1
 O  O2  1  0.76164  0.50776  0.36664  1
 O  O3  1  0.31014  0.96117  0.50035  1
 O  O4  1  0.04090  0.25197  0.79312  1
 O  O5  1  0.95415  0.22256  0.29448  1
 O  O6  1  0.14159  0.64508  0.92914  1
 O  O7  1  0.57702  0.21913  0.23321  1
 O  O8  1  0.12675  0.65170  0.41372  1
 O  O9  1  0.48948  0.28933  0.49048  1
 O  O10  1  0.16846  0.97077  0.93461  1
 O  O11  1  0.95910  0.74803  0.20688  1
 O  O12  1  0.04585  0.77743  0.70552  1
 O  O13  1  0.48284  0.78122  0.02232  1
 O  O14  1  0.85841  0.35492  0.07086  1
 O  O15  1  0.87325  0.34830  0.58628  1
 O  O16  1  0.23836  0.49224  0.63336  1
 O  O17  1  0.60995  0.83746  0.27321  1
 O  O18  1  0.12889  0.18177  0.54434  1
 O  O19  1  0.42298  0.78087  0.76679  1
 O  O20  1  0.87111  0.81823  0.45566  1
 O  O21  1  0.51716  0.21878  0.97768  1
 O  O22  1  0.68986  0.03883  0.49965  1
 O  O23  1  0.83316  0.73737  0.91497  1
 O  O24  1  0.59781  0.51728  0.11861  1
 O  O25  1  0.40219  0.48272  0.88139  1
 O  O26  1  0.83154  0.02923  0.06539  1
 O  O27  1  0.16684  0.26263  0.08503  1
 O  O28  1  0.39005  0.16254  0.72679  1
 Tl  Tl1  1  0.34575  0.46065  0.31847  1
 Tl  Tl2  1  0.65425  0.53935  0.68153  1
 Tl  Tl3  1  0.68440  0.05665  0.81234  1
 Tl  Tl4  1  0.31560  0.94335  0.18766  1
