CIF file written using JARVIS-Tools package.
data_SmTh4O10
_symmetry_space_group_name_H-M  'I4/m'
_cell_length_a       6.87119
_cell_length_b       5.61055
_cell_length_c       6.87119
_cell_angle_alpha    114.096
_cell_angle_beta     80.4051
_cell_angle_gamma    114.096

_symmetry_Int_Tables_number  87
_chemical_formula_structural  SmTh4O10
_chemical_formula_sum  SmTh4O0
_cell_volume  220.73991094134095
_cell_formula_units_Z  1
loop_
  _symmetry_equiv_pos_site_id
 _symmetry_equiv_pos_as_xyz
 1  'x, y, z'
loop_
 _atom_site_type_symbol
 _atom_site_label
 _atom_site_symmetry_multiplicity
 _atom_site_fract_x
 _atom_site_fract_y
 _atom_site_fract_z
 _atom_site_fract_occupancy
 O  O1  1  0.09852  0.15192  0.70181  1
 O  O2  1  0.09852  0.64841  0.70181  1
 O  O3  1  0.50181  0.25340  0.50148  1
 O  O4  1  0.50181  0.74990  0.50148  1
 O  O5  1  0.70000  0.55000  0.90000  1
 O  O6  1  0.70000  0.05000  0.90000  1
 O  O7  1  0.30148  0.44808  0.09819  1
 O  O8  1  0.30148  0.95159  0.09819  1
 O  O9  1  0.89819  0.85010  0.29852  1
 O  O10  1  0.89819  0.34660  0.29852  1
 Sm  Sm1  1  0.20000  0.80000  0.40000  1
 Th  Th1  1  0.00235  0.00138  0.00041  1
 Th  Th2  1  0.39765  0.59862  0.79959  1
 Th  Th3  1  0.59959  0.40097  0.20235  1
 Th  Th4  1  0.80041  0.19903  0.59765  1
