CIF file written using JARVIS-Tools package.
data_TaIn3O7
_symmetry_space_group_name_H-M  'C222_1'
_cell_length_a       6.40188
_cell_length_b       6.40188
_cell_length_c       7.30023
_cell_angle_alpha    90
_cell_angle_beta     90
_cell_angle_gamma    108.569

_symmetry_Int_Tables_number  20
_chemical_formula_structural  TaIn3O7
_chemical_formula_sum  Ta2In6O4
_cell_volume  283.61736206841437
_cell_formula_units_Z  2
loop_
  _symmetry_equiv_pos_site_id
 _symmetry_equiv_pos_as_xyz
 1  'x, y, z'
loop_
 _atom_site_type_symbol
 _atom_site_label
 _atom_site_symmetry_multiplicity
 _atom_site_fract_x
 _atom_site_fract_y
 _atom_site_fract_z
 _atom_site_fract_occupancy
 In  In1  1  0.00176  0.47885  0.49216  1
 In  In2  1  0.52115  0.99824  0.50784  1
 In  In3  1  0.45509  0.45509  0.75000  1
 In  In4  1  0.54491  0.54491  0.25000  1
 In  In5  1  0.99824  0.52115  0.99216  1
 In  In6  1  0.47885  0.00176  0.00784  1
 O  O1  1  0.62687  0.37313  0.00000  1
 O  O2  1  0.05845  0.94155  0.00000  1
 O  O3  1  0.35594  0.64406  0.00000  1
 O  O4  1  0.64406  0.35594  0.50000  1
 O  O5  1  0.68270  0.95282  0.78723  1
 O  O6  1  0.37313  0.62687  0.50000  1
 O  O7  1  0.04718  0.31730  0.21277  1
 O  O8  1  0.94155  0.05845  0.50000  1
 O  O9  1  0.33134  0.08081  0.73000  1
 O  O10  1  0.91919  0.66866  0.27000  1
 O  O11  1  0.66866  0.91919  0.23000  1
 O  O12  1  0.95282  0.68270  0.71277  1
 O  O13  1  0.31730  0.04718  0.28723  1
 O  O14  1  0.08081  0.33134  0.77000  1
 Ta  Ta1  1  0.99031  0.99031  0.75000  1
 Ta  Ta2  1  0.00969  0.00969  0.25000  1
