CIF file written using JARVIS-Tools package.
data_Ca2SnS4
_symmetry_space_group_name_H-M  'C2/m'
_cell_length_a       3.9387
_cell_length_b       6.92359
_cell_length_c       7.26241
_cell_angle_alpha    62.3598
_cell_angle_beta     90
_cell_angle_gamma    106.525

_symmetry_Int_Tables_number  12
_chemical_formula_structural  Ca2SnS4
_chemical_formula_sum  Ca2SnS4
_cell_volume  166.15446456411354
_cell_formula_units_Z  1
loop_
  _symmetry_equiv_pos_site_id
 _symmetry_equiv_pos_as_xyz
 1  'x, y, z'
loop_
 _atom_site_type_symbol
 _atom_site_label
 _atom_site_symmetry_multiplicity
 _atom_site_fract_x
 _atom_site_fract_y
 _atom_site_fract_z
 _atom_site_fract_occupancy
 Ca  Ca1  1  0.29836  0.59673  0.68318  1
 Ca  Ca2  1  0.70164  0.40327  0.31682  1
 S  S1  1  0.35874  0.71749  0.00942  1
 S  S2  1  0.64126  0.28251  0.99058  1
 S  S3  1  0.10382  0.20764  0.60888  1
 S  S4  1  0.89618  0.79236  0.39112  1
 Sn  Sn1  1  0.00000  0.00000  0.00000  1
