CIF file written using JARVIS-Tools package.
data_SmAsS
_symmetry_space_group_name_H-M  'Pnma'
_cell_length_a       3.88919
_cell_length_b       3.93261
_cell_length_c       17.283
_cell_angle_alpha    90
_cell_angle_beta     90
_cell_angle_gamma    90

_symmetry_Int_Tables_number  62
_chemical_formula_structural  SmAsS
_chemical_formula_sum  Sm4As4S4
_cell_volume  264.3378504637097
_cell_formula_units_Z  4
loop_
  _symmetry_equiv_pos_site_id
 _symmetry_equiv_pos_as_xyz
 1  'x, y, z'
loop_
 _atom_site_type_symbol
 _atom_site_label
 _atom_site_symmetry_multiplicity
 _atom_site_fract_x
 _atom_site_fract_y
 _atom_site_fract_z
 _atom_site_fract_occupancy
 As  As1  1  0.25000  0.78554  0.49840  1
 As  As2  1  0.75000  0.21446  0.50160  1
 As  As3  1  0.25000  0.71446  0.99840  1
 As  As4  1  0.75000  0.28554  0.00160  1
 S  S1  1  0.25000  0.23627  0.68676  1
 S  S2  1  0.25000  0.26373  0.18676  1
 S  S3  1  0.75000  0.76373  0.31324  1
 S  S4  1  0.75000  0.73627  0.81324  1
 Sm  Sm1  1  0.25000  0.23376  0.85413  1
 Sm  Sm2  1  0.75000  0.73376  0.64587  1
 Sm  Sm3  1  0.75000  0.76624  0.14587  1
 Sm  Sm4  1  0.25000  0.26624  0.35413  1
