CIF file written using JARVIS-Tools package.
data_Sr2HfO4
_symmetry_space_group_name_H-M  'Pbam'
_cell_length_a       3.36241
_cell_length_b       6.06671
_cell_length_c       10.2707
_cell_angle_alpha    90
_cell_angle_beta     90
_cell_angle_gamma    90

_symmetry_Int_Tables_number  55
_chemical_formula_structural  Sr2HfO4
_chemical_formula_sum  Sr4Hf2O8
_cell_volume  209.5090474060008
_cell_formula_units_Z  2
loop_
  _symmetry_equiv_pos_site_id
 _symmetry_equiv_pos_as_xyz
 1  'x, y, z'
loop_
 _atom_site_type_symbol
 _atom_site_label
 _atom_site_symmetry_multiplicity
 _atom_site_fract_x
 _atom_site_fract_y
 _atom_site_fract_z
 _atom_site_fract_occupancy
 Hf  Hf1  1  0.00000  0.00000  0.00000  1
 Hf  Hf2  1  0.00000  0.50000  0.50000  1
 O  O1  1  0.00000  0.13135  0.18503  1
 O  O2  1  0.50000  0.21256  0.95386  1
 O  O3  1  0.50000  0.28744  0.45386  1
 O  O4  1  0.00000  0.36865  0.68503  1
 O  O5  1  0.00000  0.63135  0.31497  1
 O  O6  1  0.50000  0.71256  0.54614  1
 O  O7  1  0.50000  0.78744  0.04614  1
 O  O8  1  0.00000  0.86865  0.81497  1
 Sr  Sr1  1  0.50000  0.06623  0.67917  1
 Sr  Sr2  1  0.50000  0.43377  0.17917  1
 Sr  Sr3  1  0.50000  0.56623  0.82083  1
 Sr  Sr4  1  0.50000  0.93377  0.32083  1
