CIF file written using JARVIS-Tools package.
data_YbB4O7
_symmetry_space_group_name_H-M  'Pmn2_1'
_cell_length_a       4.18209
_cell_length_b       4.3497
_cell_length_c       10.5125
_cell_angle_alpha    90
_cell_angle_beta     90
_cell_angle_gamma    90

_symmetry_Int_Tables_number  31
_chemical_formula_structural  YbB4O7
_chemical_formula_sum  Yb2B8O4
_cell_volume  191.23030725062952
_cell_formula_units_Z  2
loop_
  _symmetry_equiv_pos_site_id
 _symmetry_equiv_pos_as_xyz
 1  'x, y, z'
loop_
 _atom_site_type_symbol
 _atom_site_label
 _atom_site_symmetry_multiplicity
 _atom_site_fract_x
 _atom_site_fract_y
 _atom_site_fract_z
 _atom_site_fract_occupancy
 B  B1  1  -0.00072  0.82099  0.75041  1
 B  B2  1  -0.00072  0.82099  0.24959  1
 B  B3  1  0.47814  0.67242  0.88010  1
 B  B4  1  0.47814  0.67242  0.11990  1
 B  B5  1  0.49928  0.17901  0.74959  1
 B  B6  1  0.49928  0.17901  0.25041  1
 B  B7  1  0.97814  0.32758  0.61990  1
 B  B8  1  0.97814  0.32758  0.38010  1
 O  O1  1  0.63410  0.28165  0.63241  1
 O  O2  1  0.05854  0.65072  0.63526  1
 O  O3  1  0.63821  0.85964  0.77251  1
 O  O4  1  0.08942  0.20816  0.50000  1
 O  O5  1  0.13410  0.71835  0.86759  1
 O  O6  1  0.13410  0.71835  0.13241  1
 O  O7  1  0.05854  0.65072  0.36474  1
 O  O8  1  0.63821  0.85964  0.22749  1
 O  O9  1  0.55854  0.34928  0.86474  1
 O  O10  1  0.55854  0.34928  0.13526  1
 O  O11  1  0.58942  0.79184  0.00000  1
 O  O12  1  0.13821  0.14036  0.72749  1
 O  O13  1  0.63410  0.28165  0.36759  1
 O  O14  1  0.13821  0.14036  0.27251  1
 Yb  Yb1  1  0.98861  0.19295  0.00000  1
 Yb  Yb2  1  0.48861  0.80705  0.50000  1
