CIF file written using JARVIS-Tools package.
data_RbNdW2O8
_symmetry_space_group_name_H-M  'C2/c'
_cell_length_a       7.63846
_cell_length_b       7.63846
_cell_length_c       7.69027
_cell_angle_alpha    62.5284
_cell_angle_beta     62.5285
_cell_angle_gamma    89.3285

_symmetry_Int_Tables_number  15
_chemical_formula_structural  RbNdW2O8
_chemical_formula_sum  Rb2Nd2W4O6
_cell_volume  341.4938605386722
_cell_formula_units_Z  2
loop_
  _symmetry_equiv_pos_site_id
 _symmetry_equiv_pos_as_xyz
 1  'x, y, z'
loop_
 _atom_site_type_symbol
 _atom_site_label
 _atom_site_symmetry_multiplicity
 _atom_site_fract_x
 _atom_site_fract_y
 _atom_site_fract_z
 _atom_site_fract_occupancy
 Nd  Nd1  1  0.22759  0.77241  0.75000  1
 Nd  Nd2  1  0.77241  0.22759  0.25000  1
 O  O1  1  0.36922  0.58123  0.97620  1
 O  O2  1  0.58123  0.36922  0.47620  1
 O  O3  1  0.20491  0.05396  0.81007  1
 O  O4  1  0.07388  0.39042  0.86340  1
 O  O5  1  0.94604  0.79509  0.68993  1
 O  O6  1  0.75694  0.61879  0.56040  1
 O  O7  1  0.38121  0.24306  0.93960  1
 O  O8  1  0.39042  0.07388  0.36340  1
 O  O9  1  0.41877  0.63078  0.52380  1
 O  O10  1  0.05396  0.20491  0.31007  1
 O  O11  1  0.63078  0.41877  0.02380  1
 O  O12  1  0.60958  0.92612  0.63660  1
 O  O13  1  0.92612  0.60958  0.13660  1
 O  O14  1  0.24306  0.38121  0.43960  1
 O  O15  1  0.61879  0.75694  0.06040  1
 O  O16  1  0.79509  0.94604  0.18993  1
 Rb  Rb1  1  0.19919  0.80081  0.25000  1
 Rb  Rb2  1  0.80081  0.19919  0.75000  1
 W  W1  1  0.30500  0.30866  0.73191  1
 W  W2  1  0.30866  0.30500  0.23191  1
 W  W3  1  0.69500  0.69134  0.26809  1
 W  W4  1  0.69134  0.69500  0.76809  1
