CIF file written using JARVIS-Tools package.
data_VS
_symmetry_space_group_name_H-M  'Pnma'
_cell_length_a       3.2261
_cell_length_b       5.79497
_cell_length_c       5.8747
_cell_angle_alpha    90
_cell_angle_beta     90
_cell_angle_gamma    90

_symmetry_Int_Tables_number  62
_chemical_formula_structural  VS
_chemical_formula_sum  V4S4
_cell_volume  109.82828175794926
_cell_formula_units_Z  4
loop_
  _symmetry_equiv_pos_site_id
 _symmetry_equiv_pos_as_xyz
 1  'x, y, z'
loop_
 _atom_site_type_symbol
 _atom_site_label
 _atom_site_symmetry_multiplicity
 _atom_site_fract_x
 _atom_site_fract_y
 _atom_site_fract_z
 _atom_site_fract_occupancy
 S  S1  1  0.25000  0.42266  0.21850  1
 S  S2  1  0.75000  0.57734  0.78150  1
 S  S3  1  0.75000  0.92266  0.28150  1
 S  S4  1  0.25000  0.07734  0.71850  1
 V  V1  1  0.25000  0.80430  0.01140  1
 V  V2  1  0.75000  0.19570  0.98860  1
 V  V3  1  0.75000  0.30430  0.48860  1
 V  V4  1  0.25000  0.69570  0.51140  1
