CIF file written using JARVIS-Tools package.
data_KDyI3
_symmetry_space_group_name_H-M  'Cmcm'
_cell_length_a       8.10517
_cell_length_b       8.10517
_cell_length_c       11.5542
_cell_angle_alpha    90
_cell_angle_beta     90
_cell_angle_gamma    150.466

_symmetry_Int_Tables_number  63
_chemical_formula_structural  KDyI3
_chemical_formula_sum  K2Dy2I6
_cell_volume  374.1601032718239
_cell_formula_units_Z  2
loop_
  _symmetry_equiv_pos_site_id
 _symmetry_equiv_pos_as_xyz
 1  'x, y, z'
loop_
 _atom_site_type_symbol
 _atom_site_label
 _atom_site_symmetry_multiplicity
 _atom_site_fract_x
 _atom_site_fract_y
 _atom_site_fract_z
 _atom_site_fract_occupancy
 Dy  Dy1  1  0.00000  0.00000  0.00000  1
 Dy  Dy2  1  0.00000  0.00000  0.50000  1
 I  I1  1  0.64133  0.35867  0.05610  1
 I  I2  1  0.35867  0.64133  0.94390  1
 I  I3  1  0.35867  0.64133  0.55610  1
 I  I4  1  0.64133  0.35867  0.44390  1
 I  I5  1  0.93778  0.06222  0.25000  1
 I  I6  1  0.06222  0.93778  0.75000  1
 K  K1  1  0.25625  0.74375  0.25000  1
 K  K2  1  0.74375  0.25625  0.75000  1
