CIF file written using JARVIS-Tools package.
data_K2Hg3Ge2Se8
_symmetry_space_group_name_H-M  'Aea2'
_cell_length_a       6.67969
_cell_length_b       6.67967
_cell_length_c       20.1448
_cell_angle_alpha    90
_cell_angle_beta     90
_cell_angle_gamma    99.9199

_symmetry_Int_Tables_number  41
_chemical_formula_structural  K2Hg3Ge2Se8
_chemical_formula_sum  K4Hg6Ge4Se6
_cell_volume  885.3841526421248
_cell_formula_units_Z  2
loop_
  _symmetry_equiv_pos_site_id
 _symmetry_equiv_pos_as_xyz
 1  'x, y, z'
loop_
 _atom_site_type_symbol
 _atom_site_label
 _atom_site_symmetry_multiplicity
 _atom_site_fract_x
 _atom_site_fract_y
 _atom_site_fract_z
 _atom_site_fract_occupancy
 Ge  Ge1  1  0.09776  0.53052  0.86905  1
 Ge  Ge2  1  0.59776  0.03052  0.63095  1
 Ge  Ge3  1  0.03052  0.59776  0.36905  1
 Ge  Ge4  1  0.53052  0.09776  0.13095  1
 Hg  Hg1  1  0.58456  0.67354  0.25928  1
 Hg  Hg2  1  0.67354  0.58456  0.74072  1
 Hg  Hg3  1  0.08456  0.17354  0.24072  1
 Hg  Hg4  1  0.17354  0.08456  0.75928  1
 Hg  Hg5  1  0.46669  0.46669  0.00000  1
 Hg  Hg6  1  0.96669  0.96669  0.50000  1
 K  K1  1  0.10412  0.52743  0.62067  1
 K  K2  1  0.02743  0.60412  0.12067  1
 K  K3  1  0.60412  0.02743  0.87933  1
 K  K4  1  0.52743  0.10412  0.37933  1
 Se  Se1  1  0.75834  0.17344  0.72763  1
 Se  Se2  1  0.67344  0.25834  0.22763  1
 Se  Se3  1  0.25834  0.67344  0.77237  1
 Se  Se4  1  0.70887  0.23022  0.03112  1
 Se  Se5  1  0.74830  0.57432  0.86765  1
 Se  Se6  1  0.07432  0.24830  0.36765  1
 Se  Se7  1  0.24830  0.07432  0.63235  1
 Se  Se8  1  0.17344  0.75834  0.27237  1
 Se  Se9  1  0.63647  0.68089  0.61697  1
 Se  Se10  1  0.18089  0.13647  0.11697  1
 Se  Se11  1  0.13647  0.18089  0.88303  1
 Se  Se12  1  0.20887  0.73022  0.46888  1
 Se  Se13  1  0.73022  0.20887  0.53112  1
 Se  Se14  1  0.23022  0.70887  0.96888  1
 Se  Se15  1  0.68089  0.63647  0.38303  1
 Se  Se16  1  0.57432  0.74830  0.13235  1
