CIF file written using JARVIS-Tools package.
data_CeB2Ru2
_symmetry_space_group_name_H-M  'Fddd'
_cell_length_a       5.55701
_cell_length_b       5.55702
_cell_length_c       5.97717
_cell_angle_alpha    108.986
_cell_angle_beta     108.986
_cell_angle_gamma    107.466

_symmetry_Int_Tables_number  70
_chemical_formula_structural  CeB2Ru2
_chemical_formula_sum  Ce2B4Ru4
_cell_volume  147.04900451133116
_cell_formula_units_Z  2
loop_
  _symmetry_equiv_pos_site_id
 _symmetry_equiv_pos_as_xyz
 1  'x, y, z'
loop_
 _atom_site_type_symbol
 _atom_site_label
 _atom_site_symmetry_multiplicity
 _atom_site_fract_x
 _atom_site_fract_y
 _atom_site_fract_z
 _atom_site_fract_occupancy
 B  B1  1  0.93423  0.06577  0.50000  1
 B  B2  1  0.56577  0.43423  0.50000  1
 B  B3  1  0.68423  0.31577  0.00000  1
 B  B4  1  0.31577  0.68423  -0.00000  1
 Ce  Ce1  1  0.25000  0.75000  0.50000  1
 Ce  Ce2  1  0.00000  0.00000  0.00000  1
 Ru  Ru1  1  0.61177  0.11177  0.22353  1
 Ru  Ru2  1  0.88823  0.38823  0.77647  1
 Ru  Ru3  1  0.36177  0.36177  0.72353  1
 Ru  Ru4  1  0.63823  0.63823  0.27647  1
