CIF file written using JARVIS-Tools package.
data_FePd2Se2
_symmetry_space_group_name_H-M  'Ibam'
_cell_length_a       5.1145
_cell_length_b       5.94683
_cell_length_c       6.61807
_cell_angle_alpha    116.698
_cell_angle_beta     112.731
_cell_angle_gamma    90

_symmetry_Int_Tables_number  72
_chemical_formula_structural  FePd2Se2
_chemical_formula_sum  Fe2Pd4Se4
_cell_volume  162.13867203692863
_cell_formula_units_Z  2
loop_
  _symmetry_equiv_pos_site_id
 _symmetry_equiv_pos_as_xyz
 1  'x, y, z'
loop_
 _atom_site_type_symbol
 _atom_site_label
 _atom_site_symmetry_multiplicity
 _atom_site_fract_x
 _atom_site_fract_y
 _atom_site_fract_z
 _atom_site_fract_occupancy
 Fe  Fe1  1  0.75000  0.00000  -0.00000  1
 Fe  Fe2  1  0.25000  0.00000  0.00000  1
 Pd  Pd1  1  0.88854  0.27051  0.77709  1
 Pd  Pd2  1  0.11146  0.72949  0.22291  1
 Pd  Pd3  1  0.61146  0.49343  0.22291  1
 Pd  Pd4  1  0.38854  0.50657  0.77709  1
 Se  Se1  1  0.64369  0.94326  0.28737  1
 Se  Se2  1  0.35631  0.05674  0.71263  1
 Se  Se3  1  0.14369  0.34412  0.28737  1
 Se  Se4  1  0.85631  0.65588  0.71263  1
