CIF file written using JARVIS-Tools package.
data_Na2GeF6
_symmetry_space_group_name_H-M  'P321'
_cell_length_a       9.14688
_cell_length_b       9.14688
_cell_length_c       5.07378
_cell_angle_alpha    90
_cell_angle_beta     90
_cell_angle_gamma    120

_symmetry_Int_Tables_number  150
_chemical_formula_structural  Na2GeF6
_chemical_formula_sum  Na6Ge3F8
_cell_volume  367.6276408669961
_cell_formula_units_Z  3
loop_
  _symmetry_equiv_pos_site_id
 _symmetry_equiv_pos_as_xyz
 1  'x, y, z'
loop_
 _atom_site_type_symbol
 _atom_site_label
 _atom_site_symmetry_multiplicity
 _atom_site_fract_x
 _atom_site_fract_y
 _atom_site_fract_z
 _atom_site_fract_occupancy
 F  F1  1  0.22436  0.74759  0.29753  1
 F  F2  1  0.80977  0.91406  0.79466  1
 F  F3  1  0.10429  0.19023  0.79466  1
 F  F4  1  0.08594  0.89571  0.79466  1
 F  F5  1  0.19023  0.10429  0.20534  1
 F  F6  1  0.14464  0.55208  0.71199  1
 F  F7  1  0.91406  0.80977  0.20534  1
 F  F8  1  0.59256  0.44792  0.28801  1
 F  F9  1  0.89571  0.08594  0.20534  1
 F  F10  1  0.55208  0.14464  0.28801  1
 F  F11  1  0.74759  0.22436  0.70247  1
 F  F12  1  0.47677  0.25241  0.70247  1
 F  F13  1  0.85536  0.40744  0.28801  1
 F  F14  1  0.40744  0.85536  0.71199  1
 F  F15  1  0.52323  0.77564  0.29753  1
 F  F16  1  0.44792  0.59256  0.71199  1
 F  F17  1  0.77564  0.52323  0.70247  1
 F  F18  1  0.25241  0.47677  0.29753  1
 Ge  Ge1  1  0.66667  0.33333  0.49555  1
 Ge  Ge2  1  0.00000  0.00000  0.00000  1
 Ge  Ge3  1  0.33333  0.66667  0.50445  1
 Na  Na1  1  -0.00000  0.29216  0.50000  1
 Na  Na2  1  0.29216  -0.00000  0.50000  1
 Na  Na3  1  0.70784  0.70784  0.50000  1
 Na  Na4  1  -0.00000  0.62699  0.00000  1
 Na  Na5  1  0.62699  -0.00000  0.00000  1
 Na  Na6  1  0.37301  0.37301  0.00000  1
