CIF file written using JARVIS-Tools package.
data_Cd3Pb
_symmetry_space_group_name_H-M  'P6_3/mmc'
_cell_length_a       6.47127
_cell_length_b       6.47128
_cell_length_c       5.6549
_cell_angle_alpha    90
_cell_angle_beta     90
_cell_angle_gamma    120

_symmetry_Int_Tables_number  194
_chemical_formula_structural  Cd3Pb
_chemical_formula_sum  Cd6Pb2
_cell_volume  205.08540241563327
_cell_formula_units_Z  2
loop_
  _symmetry_equiv_pos_site_id
 _symmetry_equiv_pos_as_xyz
 1  'x, y, z'
loop_
 _atom_site_type_symbol
 _atom_site_label
 _atom_site_symmetry_multiplicity
 _atom_site_fract_x
 _atom_site_fract_y
 _atom_site_fract_z
 _atom_site_fract_occupancy
 Cd  Cd1  1  0.83632  0.16368  0.75000  1
 Cd  Cd2  1  0.32737  0.16368  0.75000  1
 Cd  Cd3  1  0.83632  0.67263  0.75000  1
 Cd  Cd4  1  0.16368  0.83632  0.25000  1
 Cd  Cd5  1  0.67263  0.83632  0.25000  1
 Cd  Cd6  1  0.16368  0.32737  0.25000  1
 Pb  Pb1  1  0.66667  0.33333  0.25000  1
 Pb  Pb2  1  0.33333  0.66667  0.75000  1
