CIF file written using JARVIS-Tools package.
data_Li2ZnSiO4
_symmetry_space_group_name_H-M  'P2_1/c'
_cell_length_a       5.06973
_cell_length_b       10.6885
_cell_length_c       8.00907
_cell_angle_alpha    90
_cell_angle_beta     128.519
_cell_angle_gamma    90

_symmetry_Int_Tables_number  14
_chemical_formula_structural  Li2ZnSiO4
_chemical_formula_sum  Li8Zn4Si4O6
_cell_volume  339.55680816309365
_cell_formula_units_Z  4
loop_
  _symmetry_equiv_pos_site_id
 _symmetry_equiv_pos_as_xyz
 1  'x, y, z'
loop_
 _atom_site_type_symbol
 _atom_site_label
 _atom_site_symmetry_multiplicity
 _atom_site_fract_x
 _atom_site_fract_y
 _atom_site_fract_z
 _atom_site_fract_occupancy
 Li  Li1  1  0.68318  0.66360  0.49509  1
 Li  Li2  1  0.54099  0.57607  0.74139  1
 Li  Li3  1  0.45901  0.07607  0.75861  1
 Li  Li4  1  0.45901  0.42393  0.25861  1
 Li  Li5  1  0.54099  0.92393  0.24139  1
 Li  Li6  1  0.31682  0.16360  0.00491  1
 Li  Li7  1  0.31682  0.33640  0.50491  1
 Li  Li8  1  0.68318  0.83640  0.99509  1
 O  O1  1  0.60847  0.58819  0.24913  1
 O  O2  1  0.74159  0.34059  0.53636  1
 O  O3  1  0.74159  0.15941  0.03636  1
 O  O4  1  0.82215  0.83965  0.53054  1
 O  O5  1  0.82215  0.66035  0.03054  1
 O  O6  1  0.17785  0.33965  0.96946  1
 O  O7  1  0.17785  0.16035  0.46946  1
 O  O8  1  0.39153  0.08819  0.25087  1
 O  O9  1  0.94792  0.55808  0.74494  1
 O  O10  1  0.25841  0.84059  0.96364  1
 O  O11  1  0.39153  0.41181  0.75087  1
 O  O12  1  0.05208  0.05808  0.75506  1
 O  O13  1  0.05208  0.44192  0.25506  1
 O  O14  1  0.94792  0.94192  0.24494  1
 O  O15  1  0.25841  0.65941  0.46364  1
 O  O16  1  0.60847  0.91181  0.74913  1
 Si  Si1  1  0.93450  0.91331  0.74819  1
 Si  Si2  1  0.93450  0.58669  0.24819  1
 Si  Si3  1  0.06550  0.08669  0.25181  1
 Si  Si4  1  0.06550  0.41331  0.75181  1
 Zn  Zn1  1  0.19097  0.83421  0.50150  1
 Zn  Zn2  1  0.80903  0.33421  -0.00150  1
 Zn  Zn3  1  0.80903  0.16579  0.49850  1
 Zn  Zn4  1  0.19097  0.66579  0.00150  1
