CIF file written using JARVIS-Tools package.
data_LiTi4O8
_symmetry_space_group_name_H-M  'R-3m'
_cell_length_a       5.91156
_cell_length_b       5.91165
_cell_length_c       5.91167
_cell_angle_alpha    60.6762
_cell_angle_beta     60.6801
_cell_angle_gamma    60.6784

_symmetry_Int_Tables_number  166
_chemical_formula_structural  LiTi4O8
_chemical_formula_sum  LiTi4O8
_cell_volume  148.32158991350542
_cell_formula_units_Z  1
loop_
  _symmetry_equiv_pos_site_id
 _symmetry_equiv_pos_as_xyz
 1  'x, y, z'
loop_
 _atom_site_type_symbol
 _atom_site_label
 _atom_site_symmetry_multiplicity
 _atom_site_fract_x
 _atom_site_fract_y
 _atom_site_fract_z
 _atom_site_fract_occupancy
 Li  Li1  1  0.50000  0.50000  0.50000  1
 O  O1  1  0.76087  0.76086  0.21108  1
 O  O2  1  0.76086  0.21109  0.76086  1
 O  O3  1  0.78892  0.23914  0.23913  1
 O  O4  1  0.76484  0.76485  0.76484  1
 O  O5  1  0.23516  0.23515  0.23516  1
 O  O6  1  0.21108  0.76086  0.76087  1
 O  O7  1  0.23914  0.78891  0.23914  1
 O  O8  1  0.23913  0.23914  0.78892  1
 Ti  Ti1  1  -0.00000  0.00000  0.50000  1
 Ti  Ti2  1  -0.00000  0.50000  -0.00000  1
 Ti  Ti3  1  0.50000  -0.00000  0.00000  1
 Ti  Ti4  1  0.00000  0.00000  0.00000  1
