CIF file written using JARVIS-Tools package.
data_SrCN2
_symmetry_space_group_name_H-M  'Pnma'
_cell_length_a       3.94949
_cell_length_b       5.43307
_cell_length_c       12.4514
_cell_angle_alpha    90
_cell_angle_beta     90
_cell_angle_gamma    90

_symmetry_Int_Tables_number  62
_chemical_formula_structural  SrCN2
_chemical_formula_sum  Sr4C4N8
_cell_volume  267.180161898107
_cell_formula_units_Z  4
loop_
  _symmetry_equiv_pos_site_id
 _symmetry_equiv_pos_as_xyz
 1  'x, y, z'
loop_
 _atom_site_type_symbol
 _atom_site_label
 _atom_site_symmetry_multiplicity
 _atom_site_fract_x
 _atom_site_fract_y
 _atom_site_fract_z
 _atom_site_fract_occupancy
 C  C1  1  0.75000  0.89108  0.62210  1
 C  C2  1  0.25000  0.39108  0.87790  1
 C  C3  1  0.75000  0.60892  0.12210  1
 C  C4  1  0.25000  0.10892  0.37790  1
 N  N1  1  0.25000  0.30965  0.42446  1
 N  N2  1  0.25000  0.19035  0.92446  1
 N  N3  1  0.75000  0.69035  0.57554  1
 N  N4  1  0.75000  0.80965  0.07554  1
 N  N5  1  0.25000  0.91203  0.32770  1
 N  N6  1  0.75000  0.08797  0.67230  1
 N  N7  1  0.75000  0.41203  0.17230  1
 N  N8  1  0.25000  0.58797  0.82770  1
 Sr  Sr1  1  0.25000  0.39206  0.63112  1
 Sr  Sr2  1  0.75000  0.60794  0.36888  1
 Sr  Sr3  1  0.75000  0.89206  0.86888  1
 Sr  Sr4  1  0.25000  0.10794  0.13112  1
