CIF file written using JARVIS-Tools package.
data_Rb4CuSi2O7
_symmetry_space_group_name_H-M  'P-1'
_cell_length_a       7.11689
_cell_length_b       6.28918
_cell_length_c       7.52955
_cell_angle_alpha    112.509
_cell_angle_beta     107.715
_cell_angle_gamma    107.444

_symmetry_Int_Tables_number  2
_chemical_formula_structural  Rb4CuSi2O7
_chemical_formula_sum  Rb4CuSi2O7
_cell_volume  261.303446494683
_cell_formula_units_Z  1
loop_
  _symmetry_equiv_pos_site_id
 _symmetry_equiv_pos_as_xyz
 1  'x, y, z'
loop_
 _atom_site_type_symbol
 _atom_site_label
 _atom_site_symmetry_multiplicity
 _atom_site_fract_x
 _atom_site_fract_y
 _atom_site_fract_z
 _atom_site_fract_occupancy
 Cu  Cu1  1  0.00000  -0.00000  0.50000  1
 O  O1  1  0.38309  0.03093  0.23732  1
 O  O2  1  0.16806  0.25089  0.43652  1
 O  O3  1  0.83194  0.74911  0.56348  1
 O  O4  1  0.00892  0.24776  0.77189  1
 O  O5  1  -0.00892  0.75224  0.22811  1
 O  O6  1  0.61691  -0.03093  0.76268  1
 O  O7  1  0.00000  0.00000  0.00000  1
 Rb  Rb1  1  0.63862  0.40417  0.72461  1
 Rb  Rb2  1  0.36138  0.59583  0.27539  1
 Rb  Rb3  1  0.76735  0.28819  0.22425  1
 Rb  Rb4  1  0.23265  0.71181  0.77575  1
 Si  Si1  1  0.14650  0.00557  0.22405  1
 Si  Si2  1  -0.14650  -0.00557  0.77595  1
