CIF file written using JARVIS-Tools package.
data_Ba4Ru3O10
_symmetry_space_group_name_H-M  'Cmce'
_cell_length_a       5.7894
_cell_length_b       7.3277
_cell_length_c       13.0911
_cell_angle_alpha    90
_cell_angle_beta     90
_cell_angle_gamma    113.268

_symmetry_Int_Tables_number  64
_chemical_formula_structural  Ba4Ru3O10
_chemical_formula_sum  Ba8Ru6O20
_cell_volume  510.19234639685016
_cell_formula_units_Z  2
loop_
  _symmetry_equiv_pos_site_id
 _symmetry_equiv_pos_as_xyz
 1  'x, y, z'
loop_
 _atom_site_type_symbol
 _atom_site_label
 _atom_site_symmetry_multiplicity
 _atom_site_fract_x
 _atom_site_fract_y
 _atom_site_fract_z
 _atom_site_fract_occupancy
 Ba  Ba1  1  0.23993  0.47987  0.88827  1
 Ba  Ba2  1  0.03877  0.07754  0.63834  1
 Ba  Ba3  1  0.96123  0.92246  0.36166  1
 Ba  Ba4  1  0.46123  0.92246  0.13834  1
 Ba  Ba5  1  0.76007  0.52013  0.11173  1
 Ba  Ba6  1  0.73993  0.47987  0.61173  1
 Ba  Ba7  1  0.26007  0.52013  0.38827  1
 Ba  Ba8  1  0.53877  0.07754  0.86166  1
 O  O1  1  0.33814  0.21913  0.03454  1
 O  O2  1  0.38099  0.21913  0.46546  1
 O  O3  1  0.16186  0.78087  0.53454  1
 O  O4  1  0.88099  0.21913  0.03454  1
 O  O5  1  0.66186  0.78087  0.96546  1
 O  O6  1  0.26807  0.53615  0.14748  1
 O  O7  1  0.83814  0.21913  0.46546  1
 O  O8  1  0.73193  0.46385  0.85252  1
 O  O9  1  0.11901  0.78087  0.96546  1
 O  O10  1  0.76807  0.53615  0.35252  1
 O  O11  1  0.61901  0.78087  0.53454  1
 O  O12  1  0.53676  0.07352  0.65234  1
 O  O13  1  0.03676  0.07352  0.84766  1
 O  O14  1  0.12860  0.75720  0.75000  1
 O  O15  1  0.23193  0.46385  0.64748  1
 O  O16  1  0.37140  0.24280  0.25000  1
 O  O17  1  0.96324  0.92648  0.15234  1
 O  O18  1  0.62860  0.75720  0.75000  1
 O  O19  1  0.46324  0.92648  0.34766  1
 O  O20  1  0.87140  0.24280  0.25000  1
 Ru  Ru1  1  0.50000  0.00000  0.50000  1
 Ru  Ru2  1  0.37751  0.75502  0.65108  1
 Ru  Ru3  1  0.62249  0.24498  0.34892  1
 Ru  Ru4  1  0.12249  0.24498  0.15108  1
 Ru  Ru5  1  0.87751  0.75502  0.84892  1
 Ru  Ru6  1  0.00000  0.00000  0.00000  1
