CIF file written using JARVIS-Tools package.
data_K2LiAlF6
_symmetry_space_group_name_H-M  'R-3m'
_cell_length_a       9.76726
_cell_length_b       9.76726
_cell_length_c       9.76726
_cell_angle_alpha    33.4552
_cell_angle_beta     33.4553
_cell_angle_gamma    33.4552

_symmetry_Int_Tables_number  166
_chemical_formula_structural  K2LiAlF6
_chemical_formula_sum  K4Li2Al2F2
_cell_volume  252.1976299908997
_cell_formula_units_Z  2
loop_
  _symmetry_equiv_pos_site_id
 _symmetry_equiv_pos_as_xyz
 1  'x, y, z'
loop_
 _atom_site_type_symbol
 _atom_site_label
 _atom_site_symmetry_multiplicity
 _atom_site_fract_x
 _atom_site_fract_y
 _atom_site_fract_z
 _atom_site_fract_occupancy
 Al  Al1  1  0.50000  0.50000  0.50000  1
 Al  Al2  1  0.00000  0.00000  0.00000  1
 F  F1  1  0.61071  0.16005  0.61071  1
 F  F2  1  0.19292  0.19292  0.72814  1
 F  F3  1  0.80708  0.80708  0.27186  1
 F  F4  1  0.80708  0.27186  0.80708  1
 F  F5  1  0.38929  0.38929  0.83995  1
 F  F6  1  0.38929  0.83995  0.38929  1
 F  F7  1  0.19292  0.72814  0.19292  1
 F  F8  1  0.16005  0.61071  0.61071  1
 F  F9  1  0.83995  0.38929  0.38929  1
 F  F10  1  0.72814  0.19292  0.19292  1
 F  F11  1  0.27186  0.80708  0.80708  1
 F  F12  1  0.61071  0.61071  0.16005  1
 K  K1  1  0.87228  0.87228  0.87228  1
 K  K2  1  0.71907  0.71907  0.71907  1
 K  K3  1  0.28093  0.28093  0.28093  1
 K  K4  1  0.12772  0.12772  0.12772  1
 Li  Li1  1  0.40265  0.40265  0.40265  1
 Li  Li2  1  0.59735  0.59735  0.59735  1
