CIF file written using JARVIS-Tools package.
data_SmFe2Ge2
_symmetry_space_group_name_H-M  'I4/mmm'
_cell_length_a       4.06281
_cell_length_b       4.06281
_cell_length_c       5.75716
_cell_angle_alpha    110.662
_cell_angle_beta     110.662
_cell_angle_gamma    90.0001

_symmetry_Int_Tables_number  139
_chemical_formula_structural  SmFe2Ge2
_chemical_formula_sum  SmFe2Ge2
_cell_volume  82.35324954976804
_cell_formula_units_Z  1
loop_
  _symmetry_equiv_pos_site_id
 _symmetry_equiv_pos_as_xyz
 1  'x, y, z'
loop_
 _atom_site_type_symbol
 _atom_site_label
 _atom_site_symmetry_multiplicity
 _atom_site_fract_x
 _atom_site_fract_y
 _atom_site_fract_z
 _atom_site_fract_occupancy
 Fe  Fe1  1  0.25000  0.75000  0.50000  1
 Fe  Fe2  1  0.75000  0.25000  0.50000  1
 Ge  Ge1  1  0.63483  0.63483  0.26966  1
 Ge  Ge2  1  0.36517  0.36517  0.73034  1
 Sm  Sm1  1  0.00000  0.00000  0.00000  1
