CIF file written using JARVIS-Tools package.
data_Dy3Al
_symmetry_space_group_name_H-M  'P6_3/mmc'
_cell_length_a       6.77762
_cell_length_b       6.77762
_cell_length_c       5.26471
_cell_angle_alpha    90
_cell_angle_beta     90
_cell_angle_gamma    120

_symmetry_Int_Tables_number  194
_chemical_formula_structural  Dy3Al
_chemical_formula_sum  Dy6Al2
_cell_volume  209.43975298587125
_cell_formula_units_Z  2
loop_
  _symmetry_equiv_pos_site_id
 _symmetry_equiv_pos_as_xyz
 1  'x, y, z'
loop_
 _atom_site_type_symbol
 _atom_site_label
 _atom_site_symmetry_multiplicity
 _atom_site_fract_x
 _atom_site_fract_y
 _atom_site_fract_z
 _atom_site_fract_occupancy
 Al  Al1  1  0.66667  0.33333  0.25000  1
 Al  Al2  1  0.33333  0.66667  0.75000  1
 Dy  Dy1  1  0.82543  0.17457  0.75000  1
 Dy  Dy2  1  0.34915  0.17457  0.75000  1
 Dy  Dy3  1  0.82543  0.65085  0.75000  1
 Dy  Dy4  1  0.17457  0.82543  0.25000  1
 Dy  Dy5  1  0.17457  0.34915  0.25000  1
 Dy  Dy6  1  0.65085  0.82543  0.25000  1
