CIF file written using JARVIS-Tools package.
data_Li3SbS3
_symmetry_space_group_name_H-M  'R3m'
_cell_length_a       6.31047
_cell_length_b       6.31047
_cell_length_c       6.31047
_cell_angle_alpha    115.176
_cell_angle_beta     115.176
_cell_angle_gamma    115.176

_symmetry_Int_Tables_number  160
_chemical_formula_structural  Li3SbS3
_chemical_formula_sum  Li3SbS3
_cell_volume  138.36041337943678
_cell_formula_units_Z  1
loop_
  _symmetry_equiv_pos_site_id
 _symmetry_equiv_pos_as_xyz
 1  'x, y, z'
loop_
 _atom_site_type_symbol
 _atom_site_label
 _atom_site_symmetry_multiplicity
 _atom_site_fract_x
 _atom_site_fract_y
 _atom_site_fract_z
 _atom_site_fract_occupancy
 Li  Li1  1  0.54915  0.98288  0.54915  1
 Li  Li2  1  0.54915  0.54915  0.98288  1
 Li  Li3  1  0.98288  0.54915  0.54915  1
 S  S1  1  0.97738  0.62365  0.97738  1
 S  S2  1  0.97738  0.97738  0.62365  1
 S  S3  1  0.62365  0.97738  0.97738  1
 Sb  Sb1  1  0.14033  0.14033  0.14033  1
