CIF file written using JARVIS-Tools package.
data_PbSeO4
_symmetry_space_group_name_H-M  'P2_1/c'
_cell_length_a       7.02079
_cell_length_b       7.19538
_cell_length_c       7.46327
_cell_angle_alpha    90
_cell_angle_beta     90
_cell_angle_gamma    103.151

_symmetry_Int_Tables_number  14
_chemical_formula_structural  PbSeO4
_chemical_formula_sum  Pb4Se4O6
_cell_volume  367.1367572237091
_cell_formula_units_Z  4
loop_
  _symmetry_equiv_pos_site_id
 _symmetry_equiv_pos_as_xyz
 1  'x, y, z'
loop_
 _atom_site_type_symbol
 _atom_site_label
 _atom_site_symmetry_multiplicity
 _atom_site_fract_x
 _atom_site_fract_y
 _atom_site_fract_z
 _atom_site_fract_occupancy
 O  O1  1  0.98422  0.11759  0.34320  1
 O  O2  1  0.21471  0.61572  0.79314  1
 O  O3  1  0.71471  0.11572  0.70686  1
 O  O4  1  0.78529  0.38428  0.20686  1
 O  O5  1  0.18067  0.52602  0.39038  1
 O  O6  1  0.31933  0.97398  0.89038  1
 O  O7  1  0.81933  0.47398  0.60962  1
 O  O8  1  0.68067  0.02602  0.10962  1
 O  O9  1  0.05028  0.23783  0.00316  1
 O  O10  1  0.44972  0.26217  0.50316  1
 O  O11  1  0.28529  0.88428  0.29314  1
 O  O12  1  0.55028  0.73783  0.49684  1
 O  O13  1  0.51578  0.38241  0.84320  1
 O  O14  1  0.01578  0.88241  0.65680  1
 O  O15  1  0.48422  0.61759  0.15680  1
 O  O16  1  0.94972  0.76217  0.99684  1
 Pb  Pb1  1  0.09740  0.28171  0.64831  1
 Pb  Pb2  1  0.90260  0.71829  0.35169  1
 Pb  Pb3  1  0.59740  0.78171  0.85169  1
 Pb  Pb4  1  0.40260  0.21829  0.14831  1
 Se  Se1  1  0.38057  0.69619  0.33614  1
 Se  Se2  1  0.11943  0.80381  0.83614  1
 Se  Se3  1  0.61943  0.30381  0.66386  1
 Se  Se4  1  0.88057  0.19619  0.16386  1
