CIF file written using JARVIS-Tools package.
data_Sr2CaTlCu2O7
_symmetry_space_group_name_H-M  'P4/mmm'
_cell_length_a       3.77356
_cell_length_b       3.77356
_cell_length_c       12.2047
_cell_angle_alpha    90
_cell_angle_beta     90
_cell_angle_gamma    90

_symmetry_Int_Tables_number  123
_chemical_formula_structural  Sr2CaTlCu2O7
_chemical_formula_sum  Sr2CaTlCu2O7
_cell_volume  173.79206801414384
_cell_formula_units_Z  1
loop_
  _symmetry_equiv_pos_site_id
 _symmetry_equiv_pos_as_xyz
 1  'x, y, z'
loop_
 _atom_site_type_symbol
 _atom_site_label
 _atom_site_symmetry_multiplicity
 _atom_site_fract_x
 _atom_site_fract_y
 _atom_site_fract_z
 _atom_site_fract_occupancy
 Ca  Ca1  1  0.50000  0.50000  0.50000  1
 Cu  Cu1  1  0.00000  0.00000  0.35945  1
 Cu  Cu2  1  0.00000  0.00000  0.64055  1
 O  O1  1  0.50000  0.00000  0.62765  1
 O  O2  1  0.00000  0.50000  0.62765  1
 O  O3  1  0.50000  0.00000  0.37235  1
 O  O4  1  0.00000  0.50000  0.37235  1
 O  O5  1  0.00000  0.00000  0.82699  1
 O  O6  1  0.00000  0.00000  0.17301  1
 O  O7  1  0.50000  0.50000  0.00000  1
 Sr  Sr1  1  0.50000  0.50000  0.21005  1
 Sr  Sr2  1  0.50000  0.50000  0.78995  1
 Tl  Tl1  1  0.00000  0.00000  0.00000  1
