CIF file written using JARVIS-Tools package.
data_YNi
_symmetry_space_group_name_H-M  'Pnma'
_cell_length_a       4.18099
_cell_length_b       5.42567
_cell_length_c       7.04275
_cell_angle_alpha    90
_cell_angle_beta     90
_cell_angle_gamma    90

_symmetry_Int_Tables_number  62
_chemical_formula_structural  YNi
_chemical_formula_sum  Y4Ni4
_cell_volume  159.76255213329847
_cell_formula_units_Z  4
loop_
  _symmetry_equiv_pos_site_id
 _symmetry_equiv_pos_as_xyz
 1  'x, y, z'
loop_
 _atom_site_type_symbol
 _atom_site_label
 _atom_site_symmetry_multiplicity
 _atom_site_fract_x
 _atom_site_fract_y
 _atom_site_fract_z
 _atom_site_fract_occupancy
 Ni  Ni1  1  0.75000  0.37101  0.96238  1
 Ni  Ni2  1  0.25000  0.87101  0.53762  1
 Ni  Ni3  1  0.25000  0.62899  0.03762  1
 Ni  Ni4  1  0.75000  0.12899  0.46238  1
 Y  Y1  1  0.75000  0.86585  0.81929  1
 Y  Y2  1  0.25000  0.36585  0.68071  1
 Y  Y3  1  0.25000  0.13415  0.18071  1
 Y  Y4  1  0.75000  0.63415  0.31929  1
