CIF file written using JARVIS-Tools package.
data_VInO4
_symmetry_space_group_name_H-M  'C2/m'
_cell_length_a       7.05124
_cell_length_b       7.05124
_cell_length_c       7.12365
_cell_angle_alpha    79.1792
_cell_angle_beta     79.1791
_cell_angle_gamma    84.9395

_symmetry_Int_Tables_number  12
_chemical_formula_structural  VInO4
_chemical_formula_sum  V4In4O6
_cell_volume  341.1890984490811
_cell_formula_units_Z  4
loop_
  _symmetry_equiv_pos_site_id
 _symmetry_equiv_pos_as_xyz
 1  'x, y, z'
loop_
 _atom_site_type_symbol
 _atom_site_label
 _atom_site_symmetry_multiplicity
 _atom_site_fract_x
 _atom_site_fract_y
 _atom_site_fract_z
 _atom_site_fract_occupancy
 In  In1  1  0.18714  0.81286  0.50000  1
 In  In2  1  0.81286  0.18714  0.50000  1
 In  In3  1  0.78884  0.78884  0.86823  1
 In  In4  1  0.21116  0.21116  0.13177  1
 O  O1  1  0.79697  0.10695  0.81290  1
 O  O2  1  0.14091  0.14091  0.46130  1
 O  O3  1  0.85909  0.85909  0.53870  1
 O  O4  1  0.79339  0.79339  0.16196  1
 O  O5  1  0.50943  0.21018  0.52537  1
 O  O6  1  0.78339  0.48277  0.89061  1
 O  O7  1  0.51723  0.21661  0.10939  1
 O  O8  1  0.20661  0.20661  0.83804  1
 O  O9  1  0.48277  0.78339  0.89061  1
 O  O10  1  0.78982  0.49057  0.47463  1
 O  O11  1  0.10695  0.79697  0.81290  1
 O  O12  1  0.21661  0.51723  0.10939  1
 O  O13  1  0.89305  0.20303  0.18710  1
 O  O14  1  0.49057  0.78982  0.47463  1
 O  O15  1  0.21018  0.50943  0.52537  1
 O  O16  1  0.20303  0.89305  0.18710  1
 V  V1  1  0.72664  0.72664  0.40563  1
 V  V2  1  0.27337  0.27337  0.59437  1
 V  V3  1  0.74812  0.25188  0.00000  1
 V  V4  1  0.25188  0.74812  -0.00000  1
