CIF file written using JARVIS-Tools package.
data_TiCrP
_symmetry_space_group_name_H-M  'P-62m'
_cell_length_a       6.41132
_cell_length_b       6.41132
_cell_length_c       3.25335
_cell_angle_alpha    90
_cell_angle_beta     90
_cell_angle_gamma    120

_symmetry_Int_Tables_number  189
_chemical_formula_structural  TiCrP
_chemical_formula_sum  Ti3Cr3P3
_cell_volume  115.81262957163827
_cell_formula_units_Z  3
loop_
  _symmetry_equiv_pos_site_id
 _symmetry_equiv_pos_as_xyz
 1  'x, y, z'
loop_
 _atom_site_type_symbol
 _atom_site_label
 _atom_site_symmetry_multiplicity
 _atom_site_fract_x
 _atom_site_fract_y
 _atom_site_fract_z
 _atom_site_fract_occupancy
 Cr  Cr1  1  0.00000  0.25389  0.00000  1
 Cr  Cr2  1  0.25389  0.00000  0.00000  1
 Cr  Cr3  1  0.74611  0.74611  0.00000  1
 P  P1  1  0.66667  0.33333  0.00000  1
 P  P2  1  0.33333  0.66667  0.00000  1
 P  P3  1  0.00000  0.00000  0.50000  1
 Ti  Ti1  1  0.40532  0.40532  0.50000  1
 Ti  Ti2  1  0.59468  -0.00000  0.50000  1
 Ti  Ti3  1  -0.00000  0.59468  0.50000  1
