CIF file written using JARVIS-Tools package.
data_LiAgF2
_symmetry_space_group_name_H-M  'C2/m'
_cell_length_a       2.97441
_cell_length_b       2.97407
_cell_length_c       6.2706
_cell_angle_alpha    96.8732
_cell_angle_beta     96.8324
_cell_angle_gamma    60.1017

_symmetry_Int_Tables_number  12
_chemical_formula_structural  LiAgF2
_chemical_formula_sum  LiAgF2
_cell_volume  47.628633265936756
_cell_formula_units_Z  1
loop_
  _symmetry_equiv_pos_site_id
 _symmetry_equiv_pos_as_xyz
 1  'x, y, z'
loop_
 _atom_site_type_symbol
 _atom_site_label
 _atom_site_symmetry_multiplicity
 _atom_site_fract_x
 _atom_site_fract_y
 _atom_site_fract_z
 _atom_site_fract_occupancy
 Ag  Ag1  1  0.00000  0.00000  0.00000  1
 F  F1  1  0.13781  0.13730  0.32826  1
 F  F2  1  0.86219  0.86270  0.67174  1
 Li  Li1  1  0.50000  0.50000  0.50000  1
