CIF file written using JARVIS-Tools package.
data_KAlSiO4
_symmetry_space_group_name_H-M  'P31c'
_cell_length_a       5.18014
_cell_length_b       5.18014
_cell_length_c       8.83513
_cell_angle_alpha    90
_cell_angle_beta     90
_cell_angle_gamma    120

_symmetry_Int_Tables_number  159
_chemical_formula_structural  KAlSiO4
_chemical_formula_sum  K2Al2Si2O8
_cell_volume  205.31754810559622
_cell_formula_units_Z  2
loop_
  _symmetry_equiv_pos_site_id
 _symmetry_equiv_pos_as_xyz
 1  'x, y, z'
loop_
 _atom_site_type_symbol
 _atom_site_label
 _atom_site_symmetry_multiplicity
 _atom_site_fract_x
 _atom_site_fract_y
 _atom_site_fract_z
 _atom_site_fract_occupancy
 Al  Al1  1  0.33333  0.66667  0.05935  1
 Al  Al2  1  0.66667  0.33333  0.55935  1
 K  K1  1  0.00000  0.00000  0.75224  1
 K  K2  1  0.00000  0.00000  0.25224  1
 O  O1  1  0.66667  0.33333  0.75731  1
 O  O2  1  0.33333  0.66667  0.25731  1
 O  O3  1  0.37279  0.38767  0.50002  1
 O  O4  1  0.61233  0.98512  0.50002  1
 O  O5  1  0.01488  0.62721  0.50002  1
 O  O6  1  0.38767  0.37279  0.00002  1
 O  O7  1  0.62721  0.01488  0.00002  1
 O  O8  1  0.98512  0.61233  0.00002  1
 Si  Si1  1  0.66667  0.33333  0.94205  1
 Si  Si2  1  0.33333  0.66667  0.44205  1
