CIF file written using JARVIS-Tools package.
data_Rb2CO3
_symmetry_space_group_name_H-M  'Pnma'
_cell_length_a       6.03851
_cell_length_b       6.99055
_cell_length_c       10.0543
_cell_angle_alpha    90
_cell_angle_beta     90
_cell_angle_gamma    90

_symmetry_Int_Tables_number  62
_chemical_formula_structural  Rb2CO3
_chemical_formula_sum  Rb8C4O2
_cell_volume  424.4190312797184
_cell_formula_units_Z  4
loop_
  _symmetry_equiv_pos_site_id
 _symmetry_equiv_pos_as_xyz
 1  'x, y, z'
loop_
 _atom_site_type_symbol
 _atom_site_label
 _atom_site_symmetry_multiplicity
 _atom_site_fract_x
 _atom_site_fract_y
 _atom_site_fract_z
 _atom_site_fract_occupancy
 C  C1  1  0.25000  0.22488  0.41779  1
 C  C2  1  0.25000  0.72488  0.08221  1
 C  C3  1  0.75000  0.27512  0.91779  1
 C  C4  1  0.75000  0.77512  0.58221  1
 O  O1  1  0.56366  0.32596  0.86288  1
 O  O2  1  0.75000  0.67463  0.47307  1
 O  O3  1  0.93634  0.82596  0.63712  1
 O  O4  1  0.25000  0.82537  0.97307  1
 O  O5  1  0.75000  0.17463  0.02693  1
 O  O6  1  0.56366  0.82596  0.63712  1
 O  O7  1  0.06366  0.67404  0.13712  1
 O  O8  1  0.06366  0.17404  0.36288  1
 O  O9  1  0.93634  0.32596  0.86288  1
 O  O10  1  0.43634  0.17404  0.36288  1
 O  O11  1  0.25000  0.32537  0.52693  1
 O  O12  1  0.43634  0.67404  0.13712  1
 Rb  Rb1  1  0.75000  0.43792  0.25030  1
 Rb  Rb2  1  0.25000  0.23601  0.08567  1
 Rb  Rb3  1  0.25000  0.06208  0.75030  1
 Rb  Rb4  1  0.75000  0.93792  0.24970  1
 Rb  Rb5  1  0.75000  0.26399  0.58567  1
 Rb  Rb6  1  0.25000  0.56208  0.74970  1
 Rb  Rb7  1  0.25000  0.73601  0.41433  1
 Rb  Rb8  1  0.75000  0.76399  0.91433  1
