CIF file written using JARVIS-Tools package.
data_K2Mn3S4
_symmetry_space_group_name_H-M  'P2/c'
_cell_length_a       5.93459
_cell_length_b       7.2076
_cell_length_c       10.5995
_cell_angle_alpha    106.697
_cell_angle_beta     90
_cell_angle_gamma    90

_symmetry_Int_Tables_number  13
_chemical_formula_structural  K2Mn3S4
_chemical_formula_sum  K4Mn6S8
_cell_volume  434.2680001598056
_cell_formula_units_Z  2
loop_
  _symmetry_equiv_pos_site_id
 _symmetry_equiv_pos_as_xyz
 1  'x, y, z'
loop_
 _atom_site_type_symbol
 _atom_site_label
 _atom_site_symmetry_multiplicity
 _atom_site_fract_x
 _atom_site_fract_y
 _atom_site_fract_z
 _atom_site_fract_occupancy
 K  K1  1  0.50811  0.75000  0.25000  1
 K  K2  1  0.49189  0.25000  0.75000  1
 K  K3  1  0.00000  0.50000  -0.00000  1
 K  K4  1  0.00000  -0.00000  0.50000  1
 Mn  Mn1  1  0.75072  0.75000  0.75000  1
 Mn  Mn2  1  0.75014  0.46779  0.46896  1
 Mn  Mn3  1  0.24928  0.25000  0.25000  1
 Mn  Mn4  1  0.24987  0.53221  0.53104  1
 Mn  Mn5  1  0.24987  0.96779  0.96896  1
 Mn  Mn6  1  0.75014  0.03221  0.03104  1
 S  S1  1  0.96887  0.04424  0.83034  1
 S  S2  1  0.53311  0.72325  0.93716  1
 S  S3  1  0.53311  0.77675  0.56284  1
 S  S4  1  0.03113  0.95576  0.16966  1
 S  S5  1  0.03113  0.54424  0.33034  1
 S  S6  1  0.46689  0.22325  0.43716  1
 S  S7  1  0.96887  0.45576  0.66966  1
 S  S8  1  0.46689  0.27675  0.06284  1
