CIF file written using JARVIS-Tools package.
data_K3NbSe4
_symmetry_space_group_name_H-M  'Pnma'
_cell_length_a       9.64069
_cell_length_b       9.702
_cell_length_c       11.034
_cell_angle_alpha    90
_cell_angle_beta     90
_cell_angle_gamma    90

_symmetry_Int_Tables_number  62
_chemical_formula_structural  K3NbSe4
_chemical_formula_sum  K2Nb4Se6
_cell_volume  1032.0571849627775
_cell_formula_units_Z  4
loop_
  _symmetry_equiv_pos_site_id
 _symmetry_equiv_pos_as_xyz
 1  'x, y, z'
loop_
 _atom_site_type_symbol
 _atom_site_label
 _atom_site_symmetry_multiplicity
 _atom_site_fract_x
 _atom_site_fract_y
 _atom_site_fract_z
 _atom_site_fract_occupancy
 K  K1  1  0.37095  0.58871  0.75000  1
 K  K2  1  0.12905  0.08871  0.25000  1
 K  K3  1  0.62905  0.41129  0.25000  1
 K  K4  1  0.87095  0.91129  0.75000  1
 K  K5  1  0.94362  0.70734  0.45390  1
 K  K6  1  0.44362  0.79266  0.04610  1
 K  K7  1  0.55638  0.20734  0.54610  1
 K  K8  1  0.05638  0.29266  0.95390  1
 K  K9  1  0.05638  0.29266  0.54610  1
 K  K10  1  0.55638  0.20734  0.95390  1
 K  K11  1  0.44362  0.79266  0.45390  1
 K  K12  1  0.94362  0.70734  0.04610  1
 Nb  Nb1  1  0.21184  0.51537  0.25000  1
 Nb  Nb2  1  0.71184  0.98463  0.25000  1
 Nb  Nb3  1  0.28816  0.01537  0.75000  1
 Nb  Nb4  1  0.78816  0.48463  0.75000  1
 Se  Se1  1  0.83451  0.05193  0.43142  1
 Se  Se2  1  0.33451  0.44807  0.43142  1
 Se  Se3  1  0.66549  0.55193  0.93142  1
 Se  Se4  1  0.83451  0.05193  0.06858  1
 Se  Se5  1  0.16549  0.94807  0.56858  1
 Se  Se6  1  0.01871  0.58597  0.75000  1
 Se  Se7  1  0.48129  0.08597  0.25000  1
 Se  Se8  1  0.98129  0.41403  0.25000  1
 Se  Se9  1  0.31019  0.26321  0.75000  1
 Se  Se10  1  0.68981  0.73679  0.25000  1
 Se  Se11  1  0.18981  0.76321  0.25000  1
 Se  Se12  1  0.66549  0.55193  0.56858  1
 Se  Se13  1  0.16549  0.94807  0.93142  1
 Se  Se14  1  0.51871  0.91403  0.75000  1
 Se  Se15  1  0.81019  0.23679  0.75000  1
 Se  Se16  1  0.33451  0.44807  0.06858  1
