CIF file written using JARVIS-Tools package.
data_SnSe
_symmetry_space_group_name_H-M  'Pnma'
_cell_length_a       4.51969
_cell_length_b       4.21795
_cell_length_c       11.781
_cell_angle_alpha    90
_cell_angle_beta     90
_cell_angle_gamma    90

_symmetry_Int_Tables_number  62
_chemical_formula_structural  SnSe
_chemical_formula_sum  Sn4Se4
_cell_volume  224.59020519459173
_cell_formula_units_Z  4
loop_
  _symmetry_equiv_pos_site_id
 _symmetry_equiv_pos_as_xyz
 1  'x, y, z'
loop_
 _atom_site_type_symbol
 _atom_site_label
 _atom_site_symmetry_multiplicity
 _atom_site_fract_x
 _atom_site_fract_y
 _atom_site_fract_z
 _atom_site_fract_occupancy
 Se  Se1  1  0.47280  0.75000  0.85567  1
 Se  Se2  1  0.02720  0.75000  0.35567  1
 Se  Se3  1  -0.02720  0.25000  0.64433  1
 Se  Se4  1  0.52720  0.25000  0.14433  1
 Sn  Sn1  1  0.61232  0.25000  0.37911  1
 Sn  Sn2  1  0.11232  0.75000  0.12089  1
 Sn  Sn3  1  0.38768  0.75000  0.62089  1
 Sn  Sn4  1  0.88768  0.25000  0.87911  1
