CIF file written using JARVIS-Tools package.
data_KSnO2
_symmetry_space_group_name_H-M  'P-1'
_cell_length_a       6.71391
_cell_length_b       6.55309
_cell_length_c       7.4267
_cell_angle_alpha    95.8993
_cell_angle_beta     116.144
_cell_angle_gamma    103.181

_symmetry_Int_Tables_number  2
_chemical_formula_structural  KSnO2
_chemical_formula_sum  K4Sn4O8
_cell_volume  277.7634748509718
_cell_formula_units_Z  4
loop_
  _symmetry_equiv_pos_site_id
 _symmetry_equiv_pos_as_xyz
 1  'x, y, z'
loop_
 _atom_site_type_symbol
 _atom_site_label
 _atom_site_symmetry_multiplicity
 _atom_site_fract_x
 _atom_site_fract_y
 _atom_site_fract_z
 _atom_site_fract_occupancy
 K  K1  1  0.26028  0.97685  0.25741  1
 K  K2  1  0.75431  0.54668  0.00978  1
 K  K3  1  0.24549  0.45825  0.98968  1
 K  K4  1  0.73953  0.02809  0.74207  1
 O  O1  1  0.02177  0.70123  0.43891  1
 O  O2  1  0.41989  0.70197  0.78574  1
 O  O3  1  0.96299  0.71694  0.79492  1
 O  O4  1  0.48690  0.67775  0.40700  1
 O  O5  1  0.57991  0.30298  0.21372  1
 O  O6  1  0.97802  0.30371  0.56055  1
 O  O7  1  0.51288  0.32719  0.59246  1
 O  O8  1  0.03680  0.28800  0.20454  1
 Sn  Sn1  1  0.21946  0.91141  0.74209  1
 Sn  Sn2  1  0.73928  0.51166  0.50058  1
 Sn  Sn3  1  0.26050  0.49328  0.49888  1
 Sn  Sn4  1  0.78034  0.09353  0.25737  1
