CIF file written using JARVIS-Tools package.
data_AlTc3
_symmetry_space_group_name_H-M  'P6_3/mmc'
_cell_length_a       5.41388
_cell_length_b       5.41388
_cell_length_c       4.53691
_cell_angle_alpha    90
_cell_angle_beta     90
_cell_angle_gamma    120

_symmetry_Int_Tables_number  194
_chemical_formula_structural  AlTc3
_chemical_formula_sum  Al2Tc6
_cell_volume  115.16183099573607
_cell_formula_units_Z  2
loop_
  _symmetry_equiv_pos_site_id
 _symmetry_equiv_pos_as_xyz
 1  'x, y, z'
loop_
 _atom_site_type_symbol
 _atom_site_label
 _atom_site_symmetry_multiplicity
 _atom_site_fract_x
 _atom_site_fract_y
 _atom_site_fract_z
 _atom_site_fract_occupancy
 Al  Al1  1  0.33333  0.66667  0.75000  1
 Al  Al2  1  0.66667  0.33333  0.25000  1
 Tc  Tc1  1  0.17077  0.34155  0.25000  1
 Tc  Tc2  1  0.65845  0.82923  0.25000  1
 Tc  Tc3  1  0.17077  0.82923  0.25000  1
 Tc  Tc4  1  0.82923  0.65845  0.75000  1
 Tc  Tc5  1  0.34155  0.17077  0.75000  1
 Tc  Tc6  1  0.82923  0.17077  0.75000  1
