CIF file written using JARVIS-Tools package.
data_Ca2CuCN2O2
_symmetry_space_group_name_H-M  'P4/mmm'
_cell_length_a       3.73878
_cell_length_b       3.73878
_cell_length_c       7.81923
_cell_angle_alpha    90
_cell_angle_beta     90
_cell_angle_gamma    90

_symmetry_Int_Tables_number  123
_chemical_formula_structural  Ca2CuCN2O2
_chemical_formula_sum  Ca2CuCN2O2
_cell_volume  109.30088977246515
_cell_formula_units_Z  1
loop_
  _symmetry_equiv_pos_site_id
 _symmetry_equiv_pos_as_xyz
 1  'x, y, z'
loop_
 _atom_site_type_symbol
 _atom_site_label
 _atom_site_symmetry_multiplicity
 _atom_site_fract_x
 _atom_site_fract_y
 _atom_site_fract_z
 _atom_site_fract_occupancy
 C  C1  1  0.00000  0.00000  0.00000  1
 Ca  Ca1  1  0.50000  0.50000  0.70213  1
 Ca  Ca2  1  0.50000  0.50000  0.29787  1
 Cu  Cu1  1  0.00000  0.00000  0.50000  1
 N  N1  1  0.00000  0.00000  0.84109  1
 N  N2  1  0.00000  0.00000  0.15891  1
 O  O1  1  0.00000  0.50000  0.50000  1
 O  O2  1  0.50000  0.00000  0.50000  1
