CIF file written using JARVIS-Tools package.
data_CeSi2
_symmetry_space_group_name_H-M  'I4_1/amd'
_cell_length_a       4.10327
_cell_length_b       4.10327
_cell_length_c       7.70317
_cell_angle_alpha    105.446
_cell_angle_beta     105.446
_cell_angle_gamma    90

_symmetry_Int_Tables_number  141
_chemical_formula_structural  CeSi2
_chemical_formula_sum  Ce2Si4
_cell_volume  120.14517760519422
_cell_formula_units_Z  2
loop_
  _symmetry_equiv_pos_site_id
 _symmetry_equiv_pos_as_xyz
 1  'x, y, z'
loop_
 _atom_site_type_symbol
 _atom_site_label
 _atom_site_symmetry_multiplicity
 _atom_site_fract_x
 _atom_site_fract_y
 _atom_site_fract_z
 _atom_site_fract_occupancy
 Ce  Ce1  1  0.87500  0.62500  0.25000  1
 Ce  Ce2  1  0.12500  0.37500  0.75000  1
 Si  Si1  1  0.70823  0.95823  0.91646  1
 Si  Si2  1  0.45823  0.20823  0.41646  1
 Si  Si3  1  0.54177  0.79177  0.58354  1
 Si  Si4  1  0.29177  0.04177  0.08354  1
