CIF file written using JARVIS-Tools package.
data_Al2SiO5
_symmetry_space_group_name_H-M  'Pnnm'
_cell_length_a       5.6158
_cell_length_b       7.84397
_cell_length_c       7.96154
_cell_angle_alpha    90
_cell_angle_beta     90
_cell_angle_gamma    90

_symmetry_Int_Tables_number  58
_chemical_formula_structural  Al2SiO5
_chemical_formula_sum  Al8Si4O20
_cell_volume  350.7067997837075
_cell_formula_units_Z  4
loop_
  _symmetry_equiv_pos_site_id
 _symmetry_equiv_pos_as_xyz
 1  'x, y, z'
loop_
 _atom_site_type_symbol
 _atom_site_label
 _atom_site_symmetry_multiplicity
 _atom_site_fract_x
 _atom_site_fract_y
 _atom_site_fract_z
 _atom_site_fract_occupancy
 Al  Al1  1  0.24203  0.00000  0.00000  1
 Al  Al2  1  0.25797  0.50000  0.50000  1
 Al  Al3  1  0.75797  0.00000  0.00000  1
 Al  Al4  1  0.74203  0.50000  0.50000  1
 Al  Al5  1  0.00000  0.13002  0.63856  1
 Al  Al6  1  0.00000  0.86998  0.36144  1
 Al  Al7  1  0.50000  0.63002  0.86144  1
 Al  Al8  1  0.50000  0.36998  0.13856  1
 O  O1  1  0.76025  0.77044  0.86748  1
 O  O2  1  0.23975  0.22956  0.13252  1
 O  O3  1  0.23975  0.77044  0.86748  1
 O  O4  1  0.26025  0.72956  0.36748  1
 O  O5  1  0.73975  0.27044  0.63252  1
 O  O6  1  0.50000  0.92536  0.13799  1
 O  O7  1  0.76025  0.22956  0.13252  1
 O  O8  1  0.50000  0.60292  0.09998  1
 O  O9  1  0.73975  0.72956  0.36748  1
 O  O10  1  0.26025  0.27044  0.63252  1
 O  O11  1  0.00000  0.10292  0.40002  1
 O  O12  1  0.00000  0.07733  0.86273  1
 O  O13  1  0.50000  0.57733  0.63727  1
 O  O14  1  0.00000  0.92267  0.13727  1
 O  O15  1  0.50000  0.39708  0.90002  1
 O  O16  1  0.00000  0.42536  0.36201  1
 O  O17  1  0.00000  0.57464  0.63799  1
 O  O18  1  0.00000  0.89708  0.59998  1
 O  O19  1  0.50000  0.42267  0.36273  1
 O  O20  1  0.50000  0.07464  0.86201  1
 Si  Si1  1  0.00000  0.75368  0.74919  1
 Si  Si2  1  0.00000  0.24632  0.25081  1
 Si  Si3  1  0.50000  0.74632  0.24919  1
 Si  Si4  1  0.50000  0.25368  0.75081  1
