CIF file written using JARVIS-Tools package.
data_LiVS3
_symmetry_space_group_name_H-M  'P-1'
_cell_length_a       5.74455
_cell_length_b       6.35329
_cell_length_c       6.6401
_cell_angle_alpha    110.507
_cell_angle_beta     91.0855
_cell_angle_gamma    115.537

_symmetry_Int_Tables_number  2
_chemical_formula_structural  LiVS3
_chemical_formula_sum  Li2V2S6
_cell_volume  200.62626631617124
_cell_formula_units_Z  2
loop_
  _symmetry_equiv_pos_site_id
 _symmetry_equiv_pos_as_xyz
 1  'x, y, z'
loop_
 _atom_site_type_symbol
 _atom_site_label
 _atom_site_symmetry_multiplicity
 _atom_site_fract_x
 _atom_site_fract_y
 _atom_site_fract_z
 _atom_site_fract_occupancy
 Li  Li1  1  0.51909  0.70787  0.83222  1
 Li  Li2  1  0.48091  0.29213  0.16778  1
 S  S1  1  0.06929  0.43492  0.85682  1
 S  S2  1  0.55307  0.95737  0.23687  1
 S  S3  1  0.17040  0.25045  0.42317  1
 S  S4  1  0.82960  0.74955  0.57683  1
 S  S5  1  0.44693  0.04263  0.76313  1
 S  S6  1  0.93071  0.56508  0.14318  1
 V  V1  1  0.77052  0.06502  0.57306  1
 V  V2  1  0.22948  0.93498  0.42694  1
