CIF file written using JARVIS-Tools package.
data_Mo2C
_symmetry_space_group_name_H-M  'Pbcn'
_cell_length_a       4.74885
_cell_length_b       5.23491
_cell_length_c       6.07502
_cell_angle_alpha    90
_cell_angle_beta     90
_cell_angle_gamma    90

_symmetry_Int_Tables_number  60
_chemical_formula_structural  Mo2C
_chemical_formula_sum  Mo8C4
_cell_volume  151.02350131540683
_cell_formula_units_Z  4
loop_
  _symmetry_equiv_pos_site_id
 _symmetry_equiv_pos_as_xyz
 1  'x, y, z'
loop_
 _atom_site_type_symbol
 _atom_site_label
 _atom_site_symmetry_multiplicity
 _atom_site_fract_x
 _atom_site_fract_y
 _atom_site_fract_z
 _atom_site_fract_occupancy
 C  C1  1  0.50000  0.75000  0.87704  1
 C  C2  1  0.00000  0.25000  0.62296  1
 C  C3  1  0.50000  0.25000  0.12296  1
 C  C4  1  0.00000  0.75000  0.37704  1
 Mo  Mo1  1  0.24472  0.07968  0.87835  1
 Mo  Mo2  1  0.74472  0.92032  0.62165  1
 Mo  Mo3  1  0.25528  0.57968  0.62165  1
 Mo  Mo4  1  0.75528  0.42032  0.87835  1
 Mo  Mo5  1  0.24472  0.57968  0.12165  1
 Mo  Mo6  1  0.74472  0.42032  0.37835  1
 Mo  Mo7  1  0.25528  0.07968  0.37835  1
 Mo  Mo8  1  0.75528  0.92032  0.12165  1
