CIF file written using JARVIS-Tools package.
data_Y2Si3N4O3
_symmetry_space_group_name_H-M  'P-42_1m'
_cell_length_a       4.92852
_cell_length_b       7.63713
_cell_length_c       7.63713
_cell_angle_alpha    90
_cell_angle_beta     90
_cell_angle_gamma    90

_symmetry_Int_Tables_number  113
_chemical_formula_structural  Y2Si3N4O3
_chemical_formula_sum  Y4Si6N8O6
_cell_volume  287.4598457213944
_cell_formula_units_Z  2
loop_
  _symmetry_equiv_pos_site_id
 _symmetry_equiv_pos_as_xyz
 1  'x, y, z'
loop_
 _atom_site_type_symbol
 _atom_site_label
 _atom_site_symmetry_multiplicity
 _atom_site_fract_x
 _atom_site_fract_y
 _atom_site_fract_z
 _atom_site_fract_occupancy
 N  N1  1  0.79167  0.07670  0.16751  1
 N  N2  1  0.79167  0.33249  0.42330  1
 N  N3  1  0.20833  0.42330  0.66751  1
 N  N4  1  0.20833  0.57670  0.33249  1
 N  N5  1  0.79167  0.92330  0.83249  1
 N  N6  1  0.20833  0.83249  0.07670  1
 N  N7  1  0.79167  0.66751  0.57670  1
 N  N8  1  0.20833  0.16751  0.92330  1
 O  O1  1  0.28010  0.86902  0.63098  1
 O  O2  1  0.71990  0.36902  0.86902  1
 O  O3  1  0.28010  0.13098  0.36902  1
 O  O4  1  0.71990  0.63098  0.13098  1
 O  O5  1  0.81505  0.00000  0.50000  1
 O  O6  1  0.18495  0.50000  0.00000  1
 Si  Si1  1  0.94520  0.85461  0.64539  1
 Si  Si2  1  0.05480  0.64539  0.14539  1
 Si  Si3  1  0.05480  0.35461  0.85461  1
 Si  Si4  1  0.94520  0.14539  0.35461  1
 Si  Si5  1  0.00000  0.50000  0.50000  1
 Si  Si6  1  0.00000  0.00000  0.00000  1
 Y  Y1  1  0.49668  0.16959  0.66959  1
 Y  Y2  1  0.50332  0.66959  0.83041  1
 Y  Y3  1  0.49668  0.83041  0.33041  1
 Y  Y4  1  0.50332  0.33041  0.16959  1
