CIF file written using JARVIS-Tools package.
data_Zn3SiNi2
_symmetry_space_group_name_H-M  'Fd-3m'
_cell_length_a       7.6086
_cell_length_b       7.60859
_cell_length_c       7.60859
_cell_angle_alpha    60
_cell_angle_beta     60
_cell_angle_gamma    60

_symmetry_Int_Tables_number  227
_chemical_formula_structural  Zn3SiNi2
_chemical_formula_sum  Zn2Si4Ni8
_cell_volume  311.4570649616294
_cell_formula_units_Z  4
loop_
  _symmetry_equiv_pos_site_id
 _symmetry_equiv_pos_as_xyz
 1  'x, y, z'
loop_
 _atom_site_type_symbol
 _atom_site_label
 _atom_site_symmetry_multiplicity
 _atom_site_fract_x
 _atom_site_fract_y
 _atom_site_fract_z
 _atom_site_fract_occupancy
 Ni  Ni1  1  0.71175  0.71175  0.71175  1
 Ni  Ni2  1  0.71175  0.71175  0.36475  1
 Ni  Ni3  1  0.28825  0.63525  0.28825  1
 Ni  Ni4  1  0.36475  0.71175  0.71175  1
 Ni  Ni5  1  0.28825  0.28825  0.28825  1
 Ni  Ni6  1  0.63525  0.28825  0.28825  1
 Ni  Ni7  1  0.28825  0.28825  0.63525  1
 Ni  Ni8  1  0.71175  0.36475  0.71175  1
 Si  Si1  1  0.50000  0.50000  0.00000  1
 Si  Si2  1  -0.00000  0.50000  0.50000  1
 Si  Si3  1  0.50000  0.50000  0.50000  1
 Si  Si4  1  0.50000  0.00000  0.50000  1
 Zn  Zn1  1  0.93965  0.31035  0.93965  1
 Zn  Zn2  1  0.31035  0.93965  0.31035  1
 Zn  Zn3  1  0.06035  0.68965  0.06035  1
 Zn  Zn4  1  0.06035  0.06035  0.68965  1
 Zn  Zn5  1  0.68965  0.68965  0.06035  1
 Zn  Zn6  1  0.68965  0.06035  0.68965  1
 Zn  Zn7  1  0.31035  0.93965  0.93965  1
 Zn  Zn8  1  0.06035  0.68965  0.68965  1
 Zn  Zn9  1  0.31035  0.31035  0.93965  1
 Zn  Zn10  1  0.93965  0.93965  0.31035  1
 Zn  Zn11  1  0.93965  0.31035  0.31035  1
 Zn  Zn12  1  0.68965  0.06035  0.06035  1
