CIF file written using JARVIS-Tools package.
data_TcP3
_symmetry_space_group_name_H-M  'Pnma'
_cell_length_a       3.13928
_cell_length_b       5.18331
_cell_length_c       15.5142
_cell_angle_alpha    90
_cell_angle_beta     90
_cell_angle_gamma    90

_symmetry_Int_Tables_number  62
_chemical_formula_structural  TcP3
_chemical_formula_sum  Tc4P2
_cell_volume  252.4448085499147
_cell_formula_units_Z  4
loop_
  _symmetry_equiv_pos_site_id
 _symmetry_equiv_pos_as_xyz
 1  'x, y, z'
loop_
 _atom_site_type_symbol
 _atom_site_label
 _atom_site_symmetry_multiplicity
 _atom_site_fract_x
 _atom_site_fract_y
 _atom_site_fract_z
 _atom_site_fract_occupancy
 P  P1  1  0.25000  0.52162  0.79307  1
 P  P2  1  0.75000  0.47838  0.20693  1
 P  P3  1  0.75000  0.02162  0.70693  1
 P  P4  1  0.25000  0.97838  0.29307  1
 P  P5  1  0.25000  0.35261  0.01285  1
 P  P6  1  0.75000  0.64739  0.98715  1
 P  P7  1  0.75000  0.85261  0.48715  1
 P  P8  1  0.25000  0.14739  0.51285  1
 P  P9  1  0.25000  0.32198  0.38170  1
 P  P10  1  0.75000  0.67802  0.61830  1
 P  P11  1  0.75000  0.82198  0.11830  1
 P  P12  1  0.25000  0.17802  0.88170  1
 Tc  Tc1  1  0.25000  0.34993  0.65064  1
 Tc  Tc2  1  0.75000  0.65007  0.34936  1
 Tc  Tc3  1  0.75000  0.84993  0.84936  1
 Tc  Tc4  1  0.25000  0.15007  0.15064  1
