CIF file written using JARVIS-Tools package.
data_K3VS2O2
_symmetry_space_group_name_H-M  'P2_1/c'
_cell_length_a       7.31045
_cell_length_b       10.4544
_cell_length_c       10.8063
_cell_angle_alpha    114.692
_cell_angle_beta     90
_cell_angle_gamma    90

_symmetry_Int_Tables_number  14
_chemical_formula_structural  K3VS2O2
_chemical_formula_sum  K2V4S8O8
_cell_volume  750.3687775103626
_cell_formula_units_Z  4
loop_
  _symmetry_equiv_pos_site_id
 _symmetry_equiv_pos_as_xyz
 1  'x, y, z'
loop_
 _atom_site_type_symbol
 _atom_site_label
 _atom_site_symmetry_multiplicity
 _atom_site_fract_x
 _atom_site_fract_y
 _atom_site_fract_z
 _atom_site_fract_occupancy
 K  K1  1  0.25834  0.05448  0.11679  1
 K  K2  1  0.36852  0.82004  0.33995  1
 K  K3  1  0.75834  0.44552  0.38321  1
 K  K4  1  0.22374  0.93925  0.71306  1
 K  K5  1  0.77626  0.06075  0.28694  1
 K  K6  1  0.63148  0.17996  0.66005  1
 K  K7  1  0.72374  0.56075  0.78694  1
 K  K8  1  0.86852  0.67996  0.16005  1
 K  K9  1  0.24166  0.55448  0.61679  1
 K  K10  1  0.74166  0.94552  0.88321  1
 K  K11  1  0.13148  0.32004  0.83995  1
 K  K12  1  0.27626  0.43925  0.21306  1
 O  O1  1  0.71721  0.89346  0.41404  1
 O  O2  1  0.12883  0.02098  0.32966  1
 O  O3  1  0.78279  0.39346  0.91404  1
 O  O4  1  0.21721  0.60654  0.08596  1
 O  O5  1  0.37117  0.52098  0.82966  1
 O  O6  1  0.87117  0.97902  0.67034  1
 O  O7  1  0.62883  0.47902  0.17034  1
 O  O8  1  0.28279  0.10654  0.58596  1
 S  S1  1  0.57855  0.73229  0.59147  1
 S  S2  1  0.03600  0.69282  0.44427  1
 S  S3  1  0.42145  0.26771  0.40853  1
 S  S4  1  0.53600  0.80718  0.05573  1
 S  S5  1  0.46400  0.19282  0.94427  1
 S  S6  1  0.92145  0.23229  0.09147  1
 S  S7  1  0.07855  0.76771  0.90853  1
 S  S8  1  0.96400  0.30718  0.55573  1
 V  V1  1  0.30179  0.66134  0.97034  1
 V  V2  1  0.80179  0.83866  0.52966  1
 V  V3  1  0.69821  0.33866  0.02966  1
 V  V4  1  0.19821  0.16134  0.47034  1
