CIF file written using JARVIS-Tools package.
data_LiS
_symmetry_space_group_name_H-M  'I-42m'
_cell_length_a       7.69347
_cell_length_b       7.69347
_cell_length_c       7.69347
_cell_angle_alpha    144.25
_cell_angle_beta     144.25
_cell_angle_gamma    51.4532

_symmetry_Int_Tables_number  121
_chemical_formula_structural  LiS
_chemical_formula_sum  Li4S4
_cell_volume  154.59502482187835
_cell_formula_units_Z  4
loop_
  _symmetry_equiv_pos_site_id
 _symmetry_equiv_pos_as_xyz
 1  'x, y, z'
loop_
 _atom_site_type_symbol
 _atom_site_label
 _atom_site_symmetry_multiplicity
 _atom_site_fract_x
 _atom_site_fract_y
 _atom_site_fract_z
 _atom_site_fract_occupancy
 Li  Li1  1  0.72287  0.72287  0.00000  1
 Li  Li2  1  0.27713  0.27713  -0.00000  1
 Li  Li3  1  0.00000  0.50000  0.50000  1
 Li  Li4  1  0.50000  -0.00000  0.50000  1
 S  S1  1  0.04012  0.71711  0.00000  1
 S  S2  1  0.71711  0.04012  0.00000  1
 S  S3  1  0.95988  0.95988  0.67698  1
 S  S4  1  0.28289  0.28289  0.32302  1
