CIF file written using JARVIS-Tools package.
data_Nd3Cu3Sb4
_symmetry_space_group_name_H-M  'I-43d'
_cell_length_a       8.4741
_cell_length_b       8.47411
_cell_length_c       8.47411
_cell_angle_alpha    109.471
_cell_angle_beta     109.471
_cell_angle_gamma    109.471

_symmetry_Int_Tables_number  220
_chemical_formula_structural  Nd3Cu3Sb4
_chemical_formula_sum  Nd6Cu6Sb8
_cell_volume  468.44637944379605
_cell_formula_units_Z  2
loop_
  _symmetry_equiv_pos_site_id
 _symmetry_equiv_pos_as_xyz
 1  'x, y, z'
loop_
 _atom_site_type_symbol
 _atom_site_label
 _atom_site_symmetry_multiplicity
 _atom_site_fract_x
 _atom_site_fract_y
 _atom_site_fract_z
 _atom_site_fract_occupancy
 Cu  Cu1  1  0.37500  0.62500  0.75000  1
 Cu  Cu2  1  0.87500  0.25000  0.12500  1
 Cu  Cu3  1  0.62500  0.75000  0.37500  1
 Cu  Cu4  1  0.12500  0.87500  0.25000  1
 Cu  Cu5  1  0.75000  0.37500  0.62500  1
 Cu  Cu6  1  0.25000  0.12500  0.87500  1
 Nd  Nd1  1  0.62500  0.37500  0.25000  1
 Nd  Nd2  1  0.75000  0.87500  0.12500  1
 Nd  Nd3  1  0.87500  0.12500  0.75000  1
 Nd  Nd4  1  0.12500  0.75000  0.87500  1
 Nd  Nd5  1  0.37500  0.25000  0.62500  1
 Nd  Nd6  1  0.25000  0.62500  0.37500  1
 Sb  Sb1  1  0.33900  0.50000  0.00000  1
 Sb  Sb2  1  0.50000  0.00000  0.33900  1
 Sb  Sb3  1  -0.00000  0.33900  0.50000  1
 Sb  Sb4  1  0.66100  0.66100  0.66100  1
 Sb  Sb5  1  -0.00000  0.83900  0.50000  1
 Sb  Sb6  1  0.16100  0.16100  0.16100  1
 Sb  Sb7  1  0.83900  0.50000  0.00000  1
 Sb  Sb8  1  0.50000  0.00000  0.83900  1
