CIF file written using JARVIS-Tools package.
data_BaGe3Pt
_symmetry_space_group_name_H-M  'I4mm'
_cell_length_a       4.64746
_cell_length_b       4.64745
_cell_length_c       6.13146
_cell_angle_alpha    112.271
_cell_angle_beta     112.271
_cell_angle_gamma    90

_symmetry_Int_Tables_number  107
_chemical_formula_structural  BaGe3Pt
_chemical_formula_sum  BaGe3Pt
_cell_volume  111.8049131991759
_cell_formula_units_Z  1
loop_
  _symmetry_equiv_pos_site_id
 _symmetry_equiv_pos_as_xyz
 1  'x, y, z'
loop_
 _atom_site_type_symbol
 _atom_site_label
 _atom_site_symmetry_multiplicity
 _atom_site_fract_x
 _atom_site_fract_y
 _atom_site_fract_z
 _atom_site_fract_occupancy
 Ba  Ba1  1  0.00053  0.00053  0.00105  1
 Ge  Ge1  1  0.75366  0.25366  0.50732  1
 Ge  Ge2  1  0.25366  0.75366  0.50732  1
 Ge  Ge3  1  0.39985  0.39985  0.79969  1
 Pt  Pt1  1  0.64801  0.64801  0.29602  1
