CIF file written using JARVIS-Tools package.
data_Tb2Cl3
_symmetry_space_group_name_H-M  'C2/m'
_cell_length_a       7.78989
_cell_length_b       7.7899
_cell_length_c       10.0895
_cell_angle_alpha    63.31
_cell_angle_beta     63.31
_cell_angle_gamma    28.5584

_symmetry_Int_Tables_number  12
_chemical_formula_structural  Tb2Cl3
_chemical_formula_sum  Tb4Cl6
_cell_volume  259.3549496054142
_cell_formula_units_Z  2
loop_
  _symmetry_equiv_pos_site_id
 _symmetry_equiv_pos_as_xyz
 1  'x, y, z'
loop_
 _atom_site_type_symbol
 _atom_site_label
 _atom_site_symmetry_multiplicity
 _atom_site_fract_x
 _atom_site_fract_y
 _atom_site_fract_z
 _atom_site_fract_occupancy
 Cl  Cl1  1  0.84260  0.84260  0.01229  1
 Cl  Cl2  1  0.15740  0.15740  0.98771  1
 Cl  Cl3  1  0.72982  0.72982  0.38217  1
 Cl  Cl4  1  0.27018  0.27018  0.61783  1
 Cl  Cl5  1  0.45161  0.45161  0.23013  1
 Cl  Cl6  1  0.54839  0.54839  0.76987  1
 Tb  Tb1  1  0.91121  0.91121  0.44728  1
 Tb  Tb2  1  0.08879  0.08879  0.55272  1
 Tb  Tb3  1  0.63786  0.63786  0.20656  1
 Tb  Tb4  1  0.36214  0.36214  0.79344  1
