CIF file written using JARVIS-Tools package.
data_Cr3As
_symmetry_space_group_name_H-M  'I4/mmm'
_cell_length_a       4.74722
_cell_length_b       4.74722
_cell_length_c       4.74722
_cell_angle_alpha    137.035
_cell_angle_beta     137.035
_cell_angle_gamma    62.3837

_symmetry_Int_Tables_number  139
_chemical_formula_structural  Cr3As
_chemical_formula_sum  Cr3As
_cell_volume  49.095134333085056
_cell_formula_units_Z  1
loop_
  _symmetry_equiv_pos_site_id
 _symmetry_equiv_pos_as_xyz
 1  'x, y, z'
loop_
 _atom_site_type_symbol
 _atom_site_label
 _atom_site_symmetry_multiplicity
 _atom_site_fract_x
 _atom_site_fract_y
 _atom_site_fract_z
 _atom_site_fract_occupancy
 As  As1  1  0.00000  0.00000  0.00000  1
 Cr  Cr1  1  0.75000  0.25000  0.50000  1
 Cr  Cr2  1  0.25000  0.75000  0.50000  1
 Cr  Cr3  1  0.50000  0.50000  0.00000  1
