CIF file written using JARVIS-Tools package.
data_K2LiBO3
_symmetry_space_group_name_H-M  'C2'
_cell_length_a       5.32367
_cell_length_b       5.32366
_cell_length_c       7.33676
_cell_angle_alpha    79.2871
_cell_angle_beta     79.2871
_cell_angle_gamma    69.6668

_symmetry_Int_Tables_number  5
_chemical_formula_structural  K2LiBO3
_chemical_formula_sum  K4Li2B2O6
_cell_volume  189.91105812884962
_cell_formula_units_Z  2
loop_
  _symmetry_equiv_pos_site_id
 _symmetry_equiv_pos_as_xyz
 1  'x, y, z'
loop_
 _atom_site_type_symbol
 _atom_site_label
 _atom_site_symmetry_multiplicity
 _atom_site_fract_x
 _atom_site_fract_y
 _atom_site_fract_z
 _atom_site_fract_occupancy
 B  B1  1  0.48988  0.21310  0.21722  1
 B  B2  1  0.78690  0.51012  0.78278  1
 K  K1  1  0.84039  0.50774  0.32339  1
 K  K2  1  0.16436  0.83564  0.50000  1
 K  K3  1  0.99955  0.00045  -0.00000  1
 K  K4  1  0.49226  0.15961  0.67661  1
 Li  Li1  1  0.26930  0.46006  0.96738  1
 Li  Li2  1  0.53994  0.73070  0.03262  1
 O  O1  1  0.36991  0.49571  0.21262  1
 O  O2  1  0.50429  0.63009  0.78738  1
 O  O3  1  0.67697  0.06007  0.33528  1
 O  O4  1  0.90546  0.57794  0.91463  1
 O  O5  1  0.42206  0.09454  0.08537  1
 O  O6  1  0.93993  0.32303  0.66472  1
