CIF file written using JARVIS-Tools package.
data_Li2ReN2
_symmetry_space_group_name_H-M  'P-3m1'
_cell_length_a       2.93446
_cell_length_b       2.9344
_cell_length_c       7.61577
_cell_angle_alpha    90
_cell_angle_beta     89.8941
_cell_angle_gamma    119.999

_symmetry_Int_Tables_number  164
_chemical_formula_structural  Li2ReN2
_chemical_formula_sum  Li2ReN2
_cell_volume  56.793065573559716
_cell_formula_units_Z  1
loop_
  _symmetry_equiv_pos_site_id
 _symmetry_equiv_pos_as_xyz
 1  'x, y, z'
loop_
 _atom_site_type_symbol
 _atom_site_label
 _atom_site_symmetry_multiplicity
 _atom_site_fract_x
 _atom_site_fract_y
 _atom_site_fract_z
 _atom_site_fract_occupancy
 Li  Li1  1  0.66471  0.33236  0.29873  1
 Li  Li2  1  0.33529  0.66764  0.70127  1
 N  N1  1  0.66776  0.33388  0.83221  1
 N  N2  1  0.33224  0.66612  0.16779  1
 Re  Re1  1  0.00000  0.00000  0.00000  1
