CIF file written using JARVIS-Tools package.
data_ZrTiNb
_symmetry_space_group_name_H-M  'Fmm2'
_cell_length_a       7.47992
_cell_length_b       7.29145
_cell_length_c       2.93423
_cell_angle_alpha    82.1751
_cell_angle_beta     74.9557
_cell_angle_gamma    22.8692

_symmetry_Int_Tables_number  42
_chemical_formula_structural  ZrTiNb
_chemical_formula_sum  ZrTiNb
_cell_volume  57.75413005855019
_cell_formula_units_Z  1
loop_
  _symmetry_equiv_pos_site_id
 _symmetry_equiv_pos_as_xyz
 1  'x, y, z'
loop_
 _atom_site_type_symbol
 _atom_site_label
 _atom_site_symmetry_multiplicity
 _atom_site_fract_x
 _atom_site_fract_y
 _atom_site_fract_z
 _atom_site_fract_occupancy
 Nb  Nb1  1  0.99204  0.99204  0.00796  1
 Ti  Ti1  1  0.34162  0.34162  0.65838  1
 Zr  Zr1  1  0.66633  0.66633  0.33367  1
