CIF file written using JARVIS-Tools package.
data_Dy3Lu
_symmetry_space_group_name_H-M  'P6_3/mmc'
_cell_length_a       7.10079
_cell_length_b       7.10079
_cell_length_c       5.54379
_cell_angle_alpha    90
_cell_angle_beta     90
_cell_angle_gamma    120

_symmetry_Int_Tables_number  194
_chemical_formula_structural  Dy3Lu
_chemical_formula_sum  Dy6Lu2
_cell_volume  242.07550107304886
_cell_formula_units_Z  2
loop_
  _symmetry_equiv_pos_site_id
 _symmetry_equiv_pos_as_xyz
 1  'x, y, z'
loop_
 _atom_site_type_symbol
 _atom_site_label
 _atom_site_symmetry_multiplicity
 _atom_site_fract_x
 _atom_site_fract_y
 _atom_site_fract_z
 _atom_site_fract_occupancy
 Dy  Dy1  1  0.83266  0.16734  0.75000  1
 Dy  Dy2  1  0.33467  0.16734  0.75000  1
 Dy  Dy3  1  0.83266  0.66533  0.75000  1
 Dy  Dy4  1  0.16734  0.83266  0.25000  1
 Dy  Dy5  1  0.66533  0.83266  0.25000  1
 Dy  Dy6  1  0.16734  0.33467  0.25000  1
 Lu  Lu1  1  0.66667  0.33333  0.25000  1
 Lu  Lu2  1  0.33333  0.66667  0.75000  1
