CIF file written using JARVIS-Tools package.
data_MnGa2S4
_symmetry_space_group_name_H-M  'Pm'
_cell_length_a       3.69619
_cell_length_b       6.18335
_cell_length_c       6.70191
_cell_angle_alpha    90.2319
_cell_angle_beta     90
_cell_angle_gamma    90

_symmetry_Int_Tables_number  6
_chemical_formula_structural  MnGa2S4
_chemical_formula_sum  MnGa2S4
_cell_volume  153.16999038761054
_cell_formula_units_Z  1
loop_
  _symmetry_equiv_pos_site_id
 _symmetry_equiv_pos_as_xyz
 1  'x, y, z'
loop_
 _atom_site_type_symbol
 _atom_site_label
 _atom_site_symmetry_multiplicity
 _atom_site_fract_x
 _atom_site_fract_y
 _atom_site_fract_z
 _atom_site_fract_occupancy
 Ga  Ga1  1  0.50000  0.90049  0.14401  1
 Ga  Ga2  1  0.50000  0.35206  0.83164  1
 Mn  Mn1  1  0.00000  0.37049  0.35274  1
 S  S1  1  0.00000  0.98474  0.34243  1
 S  S2  1  0.00000  0.51459  0.68183  1
 S  S3  1  0.50000  0.51071  0.15676  1
 S  S4  1  0.50000  0.99193  0.82460  1
