CIF file written using JARVIS-Tools package.
data_YGaAg
_symmetry_space_group_name_H-M  'C2/m'
_cell_length_a       5.71467
_cell_length_b       5.71468
_cell_length_c       7.17508
_cell_angle_alpha    52.0546
_cell_angle_beta     52.0545
_cell_angle_gamma    46.6422

_symmetry_Int_Tables_number  12
_chemical_formula_structural  YGaAg
_chemical_formula_sum  Y2Ga2Ag2
_cell_volume  126.53430930746883
_cell_formula_units_Z  2
loop_
  _symmetry_equiv_pos_site_id
 _symmetry_equiv_pos_as_xyz
 1  'x, y, z'
loop_
 _atom_site_type_symbol
 _atom_site_label
 _atom_site_symmetry_multiplicity
 _atom_site_fract_x
 _atom_site_fract_y
 _atom_site_fract_z
 _atom_site_fract_occupancy
 Ag  Ag1  1  0.17315  0.17315  0.28082  1
 Ag  Ag2  1  0.82685  0.82685  0.71918  1
 Ga  Ga1  1  0.84159  0.84159  0.11873  1
 Ga  Ga2  1  0.15841  0.15841  0.88127  1
 Y  Y1  1  0.53364  0.53364  0.71017  1
 Y  Y2  1  0.46636  0.46636  0.28983  1
