CIF file written using JARVIS-Tools package.
data_Mg2AgPd
_symmetry_space_group_name_H-M  'P4/mmm'
_cell_length_a       3.22476
_cell_length_b       3.22476
_cell_length_c       6.58143
_cell_angle_alpha    90
_cell_angle_beta     90
_cell_angle_gamma    90

_symmetry_Int_Tables_number  123
_chemical_formula_structural  Mg2AgPd
_chemical_formula_sum  Mg2AgPd
_cell_volume  68.44076296994554
_cell_formula_units_Z  1
loop_
  _symmetry_equiv_pos_site_id
 _symmetry_equiv_pos_as_xyz
 1  'x, y, z'
loop_
 _atom_site_type_symbol
 _atom_site_label
 _atom_site_symmetry_multiplicity
 _atom_site_fract_x
 _atom_site_fract_y
 _atom_site_fract_z
 _atom_site_fract_occupancy
 Ag  Ag1  1  0.00000  0.00000  0.00000  1
 Mg  Mg1  1  0.50000  0.50000  0.26578  1
 Mg  Mg2  1  0.50000  0.50000  0.73422  1
 Pd  Pd1  1  0.00000  0.00000  0.50000  1
