CIF file written using JARVIS-Tools package.
data_Fe3SbN
_symmetry_space_group_name_H-M  'Imma'
_cell_length_a       5.46305
_cell_length_b       5.45814
_cell_length_c       5.45814
_cell_angle_alpha    61.0405
_cell_angle_beta     59.9702
_cell_angle_gamma    59.9702

_symmetry_Int_Tables_number  74
_chemical_formula_structural  Fe3SbN
_chemical_formula_sum  Fe6Sb2N2
_cell_volume  115.9070698400415
_cell_formula_units_Z  2
loop_
  _symmetry_equiv_pos_site_id
 _symmetry_equiv_pos_as_xyz
 1  'x, y, z'
loop_
 _atom_site_type_symbol
 _atom_site_label
 _atom_site_symmetry_multiplicity
 _atom_site_fract_x
 _atom_site_fract_y
 _atom_site_fract_z
 _atom_site_fract_occupancy
 Fe  Fe1  1  0.27070  0.22930  0.72930  1
 Fe  Fe2  1  0.22930  0.77070  0.27070  1
 Fe  Fe3  1  0.72930  0.77070  0.27070  1
 Fe  Fe4  1  0.77070  0.22930  0.72930  1
 Fe  Fe5  1  0.25000  0.29785  0.20215  1
 Fe  Fe6  1  0.75000  0.70215  0.79785  1
 N  N1  1  0.50000  0.00000  0.00000  1
 N  N2  1  0.00000  0.50000  0.50000  1
 Sb  Sb1  1  0.75000  0.24813  0.25187  1
 Sb  Sb2  1  0.25000  0.75187  0.74813  1
