CIF file written using JARVIS-Tools package.
data_Zr4FeCo
_symmetry_space_group_name_H-M  'I422'
_cell_length_a       5.25769
_cell_length_b       5.25769
_cell_length_c       5.25769
_cell_angle_alpha    106.8
_cell_angle_beta     106.8
_cell_angle_gamma    114.956

_symmetry_Int_Tables_number  97
_chemical_formula_structural  Zr4FeCo
_chemical_formula_sum  Zr4FeCo
_cell_volume  111.10623256700079
_cell_formula_units_Z  1
loop_
  _symmetry_equiv_pos_site_id
 _symmetry_equiv_pos_as_xyz
 1  'x, y, z'
loop_
 _atom_site_type_symbol
 _atom_site_label
 _atom_site_symmetry_multiplicity
 _atom_site_fract_x
 _atom_site_fract_y
 _atom_site_fract_z
 _atom_site_fract_occupancy
 Co  Co1  1  0.00000  0.00000  0.00000  1
 Fe  Fe1  1  0.50000  0.50000  -0.00000  1
 Zr  Zr1  1  0.92649  0.42649  0.85299  1
 Zr  Zr2  1  0.57351  0.07351  0.14701  1
 Zr  Zr3  1  0.07351  0.92649  0.50000  1
 Zr  Zr4  1  0.42649  0.57351  0.50000  1
