CIF file written using JARVIS-Tools package.
data_Sr3Ac
_symmetry_space_group_name_H-M  'P6_3/mmc'
_cell_length_a       8.24669
_cell_length_b       8.24669
_cell_length_c       6.67803
_cell_angle_alpha    90
_cell_angle_beta     90
_cell_angle_gamma    120

_symmetry_Int_Tables_number  194
_chemical_formula_structural  Sr3Ac
_chemical_formula_sum  Sr6Ac2
_cell_volume  393.31291038655286
_cell_formula_units_Z  2
loop_
  _symmetry_equiv_pos_site_id
 _symmetry_equiv_pos_as_xyz
 1  'x, y, z'
loop_
 _atom_site_type_symbol
 _atom_site_label
 _atom_site_symmetry_multiplicity
 _atom_site_fract_x
 _atom_site_fract_y
 _atom_site_fract_z
 _atom_site_fract_occupancy
 Ac  Ac1  1  0.33333  0.66667  0.75000  1
 Ac  Ac2  1  0.66667  0.33333  0.25000  1
 Sr  Sr1  1  0.16976  0.33951  0.25000  1
 Sr  Sr2  1  0.66049  0.83024  0.25000  1
 Sr  Sr3  1  0.16976  0.83024  0.25000  1
 Sr  Sr4  1  0.83024  0.66049  0.75000  1
 Sr  Sr5  1  0.33951  0.16976  0.75000  1
 Sr  Sr6  1  0.83024  0.16976  0.75000  1
