CIF file written using JARVIS-Tools package.
data_K2CeSi6O15
_symmetry_space_group_name_H-M  'C2/c'
_cell_length_a       8.74465
_cell_length_b       9.84621
_cell_length_c       9.89854
_cell_angle_alpha    73.9922
_cell_angle_beta     63.7867
_cell_angle_gamma    63.6367

_symmetry_Int_Tables_number  15
_chemical_formula_structural  K2CeSi6O15
_chemical_formula_sum  K4Ce2Si2O30
_cell_volume  681.7347888643662
_cell_formula_units_Z  2
loop_
  _symmetry_equiv_pos_site_id
 _symmetry_equiv_pos_as_xyz
 1  'x, y, z'
loop_
 _atom_site_type_symbol
 _atom_site_label
 _atom_site_symmetry_multiplicity
 _atom_site_fract_x
 _atom_site_fract_y
 _atom_site_fract_z
 _atom_site_fract_occupancy
 Ce  Ce1  1  0.16269  0.25000  0.75000  1
 Ce  Ce2  1  0.83731  0.75000  0.25000  1
 K  K1  1  0.90038  0.34550  0.50136  1
 K  K2  1  0.74724  0.15450  0.99864  1
 K  K3  1  0.09962  0.65450  0.49864  1
 K  K4  1  0.25276  0.84550  0.00136  1
 O  O1  1  0.76259  0.68326  0.50272  1
 O  O2  1  0.77903  0.03512  0.55908  1
 O  O3  1  0.07911  0.08206  0.70825  1
 O  O4  1  0.22097  0.96488  0.44092  1
 O  O5  1  0.58884  0.68741  0.80432  1
 O  O6  1  0.08057  0.81259  0.69568  1
 O  O7  1  0.41116  0.31259  0.19568  1
 O  O8  1  0.43030  0.07959  0.75958  1
 O  O9  1  0.39455  0.84055  0.63461  1
 O  O10  1  0.39408  0.75000  0.25000  1
 O  O11  1  0.60545  0.15945  0.36539  1
 O  O12  1  0.73053  0.57959  0.25958  1
 O  O13  1  0.13029  0.34055  0.13461  1
 O  O14  1  0.46788  0.46164  0.34938  1
 O  O15  1  0.60592  0.25000  0.75000  1
 O  O16  1  0.72110  0.96164  0.84938  1
 O  O17  1  0.27890  0.03836  0.15062  1
 O  O18  1  0.62677  0.53512  0.05908  1
 O  O19  1  0.26947  0.42041  0.74042  1
 O  O20  1  0.91943  0.18741  0.30432  1
 O  O21  1  0.05143  0.18326  0.00272  1
 O  O22  1  0.94857  0.81674  0.99728  1
 O  O23  1  0.92089  0.91794  0.29175  1
 O  O24  1  0.53212  0.53836  0.65062  1
 O  O25  1  0.86971  0.65945  0.86539  1
 O  O26  1  0.37323  0.46488  0.94092  1
 O  O27  1  0.56970  0.92041  0.24042  1
 O  O28  1  0.13058  0.58206  0.20825  1
 O  O29  1  0.86942  0.41794  0.79175  1
 O  O30  1  0.23741  0.31674  0.49728  1
 Si  Si1  1  0.19250  0.93017  0.62069  1
 Si  Si2  1  0.25664  0.43017  0.12069  1
 Si  Si3  1  0.80750  0.06983  0.37931  1
 Si  Si4  1  0.43575  0.42054  0.77067  1
 Si  Si5  1  0.42647  0.31112  0.35669  1
 Si  Si6  1  0.90573  0.81112  0.85669  1
 Si  Si7  1  0.62696  0.07946  0.72933  1
 Si  Si8  1  0.57353  0.68888  0.64331  1
 Si  Si9  1  0.37304  0.92054  0.27067  1
 Si  Si10  1  0.74336  0.56983  0.87931  1
 Si  Si11  1  0.09427  0.18888  0.14331  1
 Si  Si12  1  0.56425  0.57946  0.22933  1
