CIF file written using JARVIS-Tools package.
data_Mg3Tc
_symmetry_space_group_name_H-M  'P6_3/mmc'
_cell_length_a       5.87069
_cell_length_b       5.87069
_cell_length_c       4.76597
_cell_angle_alpha    90
_cell_angle_beta     90
_cell_angle_gamma    120

_symmetry_Int_Tables_number  194
_chemical_formula_structural  Mg3Tc
_chemical_formula_sum  Mg6Tc2
_cell_volume  142.25263894010308
_cell_formula_units_Z  2
loop_
  _symmetry_equiv_pos_site_id
 _symmetry_equiv_pos_as_xyz
 1  'x, y, z'
loop_
 _atom_site_type_symbol
 _atom_site_label
 _atom_site_symmetry_multiplicity
 _atom_site_fract_x
 _atom_site_fract_y
 _atom_site_fract_z
 _atom_site_fract_occupancy
 Mg  Mg1  1  0.17396  0.34792  0.25000  1
 Mg  Mg2  1  0.17396  0.82604  0.25000  1
 Mg  Mg3  1  0.65208  0.82604  0.25000  1
 Mg  Mg4  1  0.34792  0.17396  0.75000  1
 Mg  Mg5  1  0.82604  0.17396  0.75000  1
 Mg  Mg6  1  0.82604  0.65208  0.75000  1
 Tc  Tc1  1  0.66667  0.33333  0.25000  1
 Tc  Tc2  1  0.33333  0.66667  0.75000  1
