CIF file written using JARVIS-Tools package.
data_Sr2HfO4
_symmetry_space_group_name_H-M  'I4_1/acd'
_cell_length_a       5.71344
_cell_length_b       13.6979
_cell_length_c       5.71344
_cell_angle_alpha    77.9625
_cell_angle_beta     90
_cell_angle_gamma    102.037

_symmetry_Int_Tables_number  142
_chemical_formula_structural  Sr2HfO4
_chemical_formula_sum  Sr8Hf4O6
_cell_volume  427.2558076240729
_cell_formula_units_Z  4
loop_
  _symmetry_equiv_pos_site_id
 _symmetry_equiv_pos_as_xyz
 1  'x, y, z'
loop_
 _atom_site_type_symbol
 _atom_site_label
 _atom_site_symmetry_multiplicity
 _atom_site_fract_x
 _atom_site_fract_y
 _atom_site_fract_z
 _atom_site_fract_occupancy
 Hf  Hf1  1  0.87500  0.25000  0.87500  1
 Hf  Hf2  1  0.62500  0.75000  0.62500  1
 Hf  Hf3  1  0.37500  0.25000  0.37500  1
 Hf  Hf4  1  0.12500  0.75000  0.12500  1
 O  O1  1  0.79424  0.08848  0.95576  1
 O  O2  1  0.57689  0.25000  0.07689  1
 O  O3  1  0.92311  0.75000  0.82689  1
 O  O4  1  0.29424  0.08848  0.45576  1
 O  O5  1  0.04424  0.58848  0.20576  1
 O  O6  1  0.45576  0.41152  0.29424  1
 O  O7  1  0.20576  0.91152  0.04424  1
 O  O8  1  0.07689  0.25000  0.17311  1
 O  O9  1  0.82689  0.75000  0.32689  1
 O  O10  1  0.17311  0.25000  0.67311  1
 O  O11  1  0.32689  0.75000  0.42311  1
 O  O12  1  0.42311  0.75000  0.92311  1
 O  O13  1  0.54424  0.58848  0.70576  1
 O  O14  1  0.67311  0.25000  0.57689  1
 O  O15  1  0.95576  0.41152  0.79424  1
 O  O16  1  0.70576  0.91152  0.54424  1
 Sr  Sr1  1  0.29971  0.09942  0.95029  1
 Sr  Sr2  1  0.20029  0.90058  0.54971  1
 Sr  Sr3  1  0.04971  0.59942  0.70029  1
 Sr  Sr4  1  0.45029  0.40058  0.79971  1
 Sr  Sr5  1  0.79971  0.09942  0.45029  1
 Sr  Sr6  1  0.70029  0.90058  0.04971  1
 Sr  Sr7  1  0.95029  0.40058  0.29971  1
 Sr  Sr8  1  0.54971  0.59942  0.20029  1
