CIF file written using JARVIS-Tools package.
data_Ba3NbFe3Si2O14
_symmetry_space_group_name_H-M  'P321'
_cell_length_a       8.64828
_cell_length_b       8.64828
_cell_length_c       5.28136
_cell_angle_alpha    90
_cell_angle_beta     90
_cell_angle_gamma    120

_symmetry_Int_Tables_number  150
_chemical_formula_structural  Ba3NbFe3Si2O14
_chemical_formula_sum  Ba3NbFe3Si2O4
_cell_volume  342.0867446779575
_cell_formula_units_Z  1
loop_
  _symmetry_equiv_pos_site_id
 _symmetry_equiv_pos_as_xyz
 1  'x, y, z'
loop_
 _atom_site_type_symbol
 _atom_site_label
 _atom_site_symmetry_multiplicity
 _atom_site_fract_x
 _atom_site_fract_y
 _atom_site_fract_z
 _atom_site_fract_occupancy
 Ba  Ba1  1  0.43217  0.43217  0.00000  1
 Ba  Ba2  1  0.00000  0.56783  0.00000  1
 Ba  Ba3  1  0.56783  0.00000  0.00000  1
 Fe  Fe1  1  0.25450  0.00000  0.50000  1
 Fe  Fe2  1  0.74550  0.74550  0.50000  1
 Fe  Fe3  1  0.00000  0.25450  0.50000  1
 Nb  Nb1  1  0.00000  0.00000  0.00000  1
 O  O1  1  0.29851  0.82322  0.35067  1
 O  O2  1  0.17678  0.47529  0.35067  1
 O  O3  1  0.11304  0.21837  0.77518  1
 O  O4  1  0.21837  0.11304  0.22482  1
 O  O5  1  0.33333  0.66667  0.78237  1
 O  O6  1  0.70149  0.52471  0.64933  1
 O  O7  1  0.52471  0.70149  0.35067  1
 O  O8  1  0.66667  0.33333  0.21763  1
 O  O9  1  0.78163  0.89467  0.77518  1
 O  O10  1  0.10533  0.88696  0.77518  1
 O  O11  1  0.47529  0.17678  0.64933  1
 O  O12  1  0.82322  0.29851  0.64933  1
 O  O13  1  0.89467  0.78163  0.22482  1
 O  O14  1  0.88696  0.10533  0.22482  1
 Si  Si1  1  0.33333  0.66667  0.47706  1
 Si  Si2  1  0.66667  0.33333  0.52294  1
