CIF file written using JARVIS-Tools package.
data_RbNO2
_symmetry_space_group_name_H-M  'P3_121'
_cell_length_a       5.61315
_cell_length_b       5.61315
_cell_length_c       7.55354
_cell_angle_alpha    90
_cell_angle_beta     90
_cell_angle_gamma    120

_symmetry_Int_Tables_number  152
_chemical_formula_structural  RbNO2
_chemical_formula_sum  Rb3N3O6
_cell_volume  206.1078912768802
_cell_formula_units_Z  3
loop_
  _symmetry_equiv_pos_site_id
 _symmetry_equiv_pos_as_xyz
 1  'x, y, z'
loop_
 _atom_site_type_symbol
 _atom_site_label
 _atom_site_symmetry_multiplicity
 _atom_site_fract_x
 _atom_site_fract_y
 _atom_site_fract_z
 _atom_site_fract_occupancy
 N  N1  1  0.00000  0.69997  0.16667  1
 N  N2  1  0.30003  0.30003  0.50000  1
 N  N3  1  0.69997  0.00000  0.83333  1
 O  O1  1  0.10810  0.63215  0.29027  1
 O  O2  1  0.52404  0.89190  0.95694  1
 O  O3  1  0.36785  0.47596  0.62361  1
 O  O4  1  0.47596  0.36785  0.37639  1
 O  O5  1  0.63215  0.10810  0.70973  1
 O  O6  1  0.89190  0.52404  0.04306  1
 Rb  Rb1  1  -0.00000  0.69864  0.66667  1
 Rb  Rb2  1  0.30136  0.30136  0.00000  1
 Rb  Rb3  1  0.69864  -0.00000  0.33333  1
