CIF file written using JARVIS-Tools package.
data_AlGaAs2
_symmetry_space_group_name_H-M  'R3m'
_cell_length_a       7.0137
_cell_length_b       7.0137
_cell_length_c       7.01371
_cell_angle_alpha    33.5749
_cell_angle_beta     33.5749
_cell_angle_gamma    33.5749

_symmetry_Int_Tables_number  160
_chemical_formula_structural  AlGaAs2
_chemical_formula_sum  AlGaAs2
_cell_volume  93.99217960067834
_cell_formula_units_Z  1
loop_
  _symmetry_equiv_pos_site_id
 _symmetry_equiv_pos_as_xyz
 1  'x, y, z'
loop_
 _atom_site_type_symbol
 _atom_site_label
 _atom_site_symmetry_multiplicity
 _atom_site_fract_x
 _atom_site_fract_y
 _atom_site_fract_z
 _atom_site_fract_occupancy
 Al  Al1  1  0.99962  0.99962  0.99962  1
 As  As1  1  0.12469  0.12469  0.12469  1
 As  As2  1  0.62546  0.62546  0.62546  1
 Ga  Ga1  1  0.50024  0.50024  0.50024  1
