CIF file written using JARVIS-Tools package.
data_Th4SiGe
_symmetry_space_group_name_H-M  'I422'
_cell_length_a       6.05628
_cell_length_b       6.05628
_cell_length_c       6.05628
_cell_angle_alpha    104.748
_cell_angle_beta     104.748
_cell_angle_gamma    119.397

_symmetry_Int_Tables_number  97
_chemical_formula_structural  Th4SiGe
_chemical_formula_sum  Th4SiGe
_cell_volume  167.09283179078733
_cell_formula_units_Z  1
loop_
  _symmetry_equiv_pos_site_id
 _symmetry_equiv_pos_as_xyz
 1  'x, y, z'
loop_
 _atom_site_type_symbol
 _atom_site_label
 _atom_site_symmetry_multiplicity
 _atom_site_fract_x
 _atom_site_fract_y
 _atom_site_fract_z
 _atom_site_fract_occupancy
 Ge  Ge1  1  0.00000  0.00000  0.00000  1
 Si  Si1  1  0.50000  0.50000  0.00000  1
 Th  Th1  1  0.91420  0.41420  0.82841  1
 Th  Th2  1  0.58580  0.08580  0.17159  1
 Th  Th3  1  0.08580  0.91420  0.50000  1
 Th  Th4  1  0.41420  0.58580  0.50000  1
