CIF file written using JARVIS-Tools package.
data_MgBr2O6
_symmetry_space_group_name_H-M  'C2/m'
_cell_length_a       5.66768
_cell_length_b       5.66768
_cell_length_c       5.95809
_cell_angle_alpha    64.9405
_cell_angle_beta     64.9405
_cell_angle_gamma    60.0054

_symmetry_Int_Tables_number  12
_chemical_formula_structural  MgBr2O6
_chemical_formula_sum  MgBr2O6
_cell_volume  144.5781630015666
_cell_formula_units_Z  1
loop_
  _symmetry_equiv_pos_site_id
 _symmetry_equiv_pos_as_xyz
 1  'x, y, z'
loop_
 _atom_site_type_symbol
 _atom_site_label
 _atom_site_symmetry_multiplicity
 _atom_site_fract_x
 _atom_site_fract_y
 _atom_site_fract_z
 _atom_site_fract_occupancy
 Br  Br1  1  0.63965  0.63965  0.09499  1
 Br  Br2  1  0.36035  0.36035  0.90501  1
 Mg  Mg1  1  0.00000  0.00000  0.00000  1
 O  O1  1  0.75470  0.75470  0.23372  1
 O  O2  1  0.24530  0.24530  0.76628  1
 O  O3  1  0.24437  0.71431  0.77074  1
 O  O4  1  0.71431  0.24437  0.77074  1
 O  O5  1  0.75563  0.28569  0.22926  1
 O  O6  1  0.28569  0.75563  0.22926  1
