CIF file written using JARVIS-Tools package.
data_Zr2Se3
_symmetry_space_group_name_H-M  'C2/m'
_cell_length_a       6.53601
_cell_length_b       6.53601
_cell_length_c       6.65314
_cell_angle_alpha    80.5928
_cell_angle_beta     80.5928
_cell_angle_gamma    120.064

_symmetry_Int_Tables_number  12
_chemical_formula_structural  Zr2Se3
_chemical_formula_sum  Zr4Se6
_cell_volume  232.44158607926087
_cell_formula_units_Z  2
loop_
  _symmetry_equiv_pos_site_id
 _symmetry_equiv_pos_as_xyz
 1  'x, y, z'
loop_
 _atom_site_type_symbol
 _atom_site_label
 _atom_site_symmetry_multiplicity
 _atom_site_fract_x
 _atom_site_fract_y
 _atom_site_fract_z
 _atom_site_fract_occupancy
 Se  Se1  1  0.25911  0.25911  0.24427  1
 Se  Se2  1  0.57870  0.92085  0.23423  1
 Se  Se3  1  0.92085  0.57870  0.23423  1
 Se  Se4  1  0.07915  0.42130  0.76577  1
 Se  Se5  1  0.42130  0.07915  0.76577  1
 Se  Se6  1  0.74089  0.74089  0.75573  1
 Zr  Zr1  1  0.17145  0.82855  0.50000  1
 Zr  Zr2  1  0.50000  0.50000  0.50000  1
 Zr  Zr3  1  0.82855  0.17145  0.50000  1
 Zr  Zr4  1  0.00000  0.00000  0.00000  1
