CIF file written using JARVIS-Tools package.
data_OsRh3
_symmetry_space_group_name_H-M  'P6_3/mmc'
_cell_length_a       5.46772
_cell_length_b       5.46772
_cell_length_c       4.37729
_cell_angle_alpha    90
_cell_angle_beta     90
_cell_angle_gamma    120

_symmetry_Int_Tables_number  194
_chemical_formula_structural  OsRh3
_chemical_formula_sum  Os2Rh6
_cell_volume  113.33106498193058
_cell_formula_units_Z  2
loop_
  _symmetry_equiv_pos_site_id
 _symmetry_equiv_pos_as_xyz
 1  'x, y, z'
loop_
 _atom_site_type_symbol
 _atom_site_label
 _atom_site_symmetry_multiplicity
 _atom_site_fract_x
 _atom_site_fract_y
 _atom_site_fract_z
 _atom_site_fract_occupancy
 Os  Os1  1  0.33333  0.66667  0.75000  1
 Os  Os2  1  0.66667  0.33333  0.25000  1
 Rh  Rh1  1  0.83174  0.16826  0.75000  1
 Rh  Rh2  1  0.33652  0.16826  0.75000  1
 Rh  Rh3  1  0.83174  0.66348  0.75000  1
 Rh  Rh4  1  0.16826  0.83174  0.25000  1
 Rh  Rh5  1  0.66348  0.83174  0.25000  1
 Rh  Rh6  1  0.16826  0.33652  0.25000  1
