CIF file written using JARVIS-Tools package.
data_Nd2Mg
_symmetry_space_group_name_H-M  'I4/mmm'
_cell_length_a       7.27485
_cell_length_b       7.27485
_cell_length_c       7.27485
_cell_angle_alpha    150.529
_cell_angle_beta     150.529
_cell_angle_gamma    42.1656

_symmetry_Int_Tables_number  139
_chemical_formula_structural  Nd2Mg
_chemical_formula_sum  Nd2Mg
_cell_volume  92.96778483611594
_cell_formula_units_Z  1
loop_
  _symmetry_equiv_pos_site_id
 _symmetry_equiv_pos_as_xyz
 1  'x, y, z'
loop_
 _atom_site_type_symbol
 _atom_site_label
 _atom_site_symmetry_multiplicity
 _atom_site_fract_x
 _atom_site_fract_y
 _atom_site_fract_z
 _atom_site_fract_occupancy
 Mg  Mg1  1  0.00000  0.00000  0.00000  1
 Nd  Nd1  1  0.65863  0.65863  0.00000  1
 Nd  Nd2  1  0.34137  0.34137  -0.00000  1
