CIF file written using JARVIS-Tools package.
data_Tb2Si2O7
_symmetry_space_group_name_H-M  'P-1'
_cell_length_a       6.67258
_cell_length_b       6.69149
_cell_length_c       12.1102
_cell_angle_alpha    94.3408
_cell_angle_beta     90.9238
_cell_angle_gamma    91.8021

_symmetry_Int_Tables_number  2
_chemical_formula_structural  Tb2Si2O7
_chemical_formula_sum  Tb8Si8O28
_cell_volume  538.8034727272031
_cell_formula_units_Z  4
loop_
  _symmetry_equiv_pos_site_id
 _symmetry_equiv_pos_as_xyz
 1  'x, y, z'
loop_
 _atom_site_type_symbol
 _atom_site_label
 _atom_site_symmetry_multiplicity
 _atom_site_fract_x
 _atom_site_fract_y
 _atom_site_fract_z
 _atom_site_fract_occupancy
 O  O1  1  0.30153  0.70950  0.90749  1
 O  O2  1  0.41630  0.17161  0.44635  1
 O  O3  1  0.58370  0.82839  0.55365  1
 O  O4  1  0.28650  0.57239  0.49041  1
 O  O5  1  0.69847  0.29050  0.09251  1
 O  O6  1  0.71362  0.21977  0.68601  1
 O  O7  1  0.64871  0.78988  0.18559  1
 O  O8  1  0.03786  0.22852  0.57297  1
 O  O9  1  0.96214  0.77148  0.42703  1
 O  O10  1  0.39999  0.56911  0.69607  1
 O  O11  1  0.92853  0.58329  0.68740  1
 O  O12  1  0.77037  0.91469  0.99506  1
 O  O13  1  0.22963  0.08531  0.00494  1
 O  O14  1  0.77341  0.09416  0.37648  1
 O  O15  1  0.35129  0.21012  0.81441  1
 O  O16  1  -0.00203  0.66481  0.08238  1
 O  O17  1  0.00203  0.33519  0.91762  1
 O  O18  1  0.99802  0.01145  0.18606  1
 O  O19  1  0.00198  0.98855  0.81394  1
 O  O20  1  0.07147  0.41671  0.31260  1
 O  O21  1  0.60001  0.43089  0.30393  1
 O  O22  1  0.22659  0.90584  0.62352  1
 O  O23  1  0.62068  0.86124  0.78774  1
 O  O24  1  0.37932  0.13876  0.21226  1
 O  O25  1  0.64572  0.51185  0.87476  1
 O  O26  1  0.35428  0.48815  0.12524  1
 O  O27  1  0.71350  0.42761  0.50959  1
 O  O28  1  0.28638  0.78023  0.31399  1
 Si  Si1  1  0.84362  0.85045  0.11584  1
 Si  Si2  1  0.51088  0.33336  0.17392  1
 Si  Si3  1  0.15638  0.14955  0.88416  1
 Si  Si4  1  0.48912  0.66664  0.82608  1
 Si  Si5  1  0.85731  0.37507  0.61822  1
 Si  Si6  1  0.14269  0.62493  0.38178  1
 Si  Si7  1  0.62374  0.27444  0.40426  1
 Si  Si8  1  0.37626  0.72556  0.59574  1
 Tb  Tb1  1  0.04899  0.32685  0.11589  1
 Tb  Tb2  1  0.95101  0.67315  0.88411  1
 Tb  Tb3  1  0.11721  0.09032  0.35971  1
 Tb  Tb4  1  0.88279  0.90968  0.64029  1
 Tb  Tb5  1  0.62952  0.77937  0.36742  1
 Tb  Tb6  1  0.37048  0.22063  0.63258  1
 Tb  Tb7  1  0.32428  0.82689  0.10938  1
 Tb  Tb8  1  0.67572  0.17311  0.89062  1
