CIF file written using JARVIS-Tools package.
data_Y3Si3Ni
_symmetry_space_group_name_H-M  'Imm2'
_cell_length_a       9.21377
_cell_length_b       9.21377
_cell_length_c       9.21377
_cell_angle_alpha    155.314
_cell_angle_beta     153.902
_cell_angle_gamma    36.2301

_symmetry_Int_Tables_number  44
_chemical_formula_structural  Y3Si3Ni
_chemical_formula_sum  Y3Si3Ni
_cell_volume  143.52546019542982
_cell_formula_units_Z  1
loop_
  _symmetry_equiv_pos_site_id
 _symmetry_equiv_pos_as_xyz
 1  'x, y, z'
loop_
 _atom_site_type_symbol
 _atom_site_label
 _atom_site_symmetry_multiplicity
 _atom_site_fract_x
 _atom_site_fract_y
 _atom_site_fract_z
 _atom_site_fract_occupancy
 Ni  Ni1  1  0.43246  0.43246  0.00000  1
 Si  Si1  1  0.64591  0.14591  0.50000  1
 Si  Si2  1  0.36064  0.86064  0.50000  1
 Si  Si3  1  0.55942  0.55942  0.00000  1
 Y  Y1  1  0.81850  0.31850  0.50000  1
 Y  Y2  1  0.18458  0.68458  0.50000  1
 Y  Y3  1  0.99849  0.99849  0.00000  1
