CIF file written using JARVIS-Tools package.
data_Li7OsO6
_symmetry_space_group_name_H-M  'P1'
_cell_length_a       5.30476
_cell_length_b       5.3951
_cell_length_c       5.7969
_cell_angle_alpha    90.9713
_cell_angle_beta     115.827
_cell_angle_gamma    119.384

_symmetry_Int_Tables_number  1
_chemical_formula_structural  Li7OsO6
_chemical_formula_sum  Li7OsO6
_cell_volume  124.36569409598955
_cell_formula_units_Z  1
loop_
  _symmetry_equiv_pos_site_id
 _symmetry_equiv_pos_as_xyz
 1  'x, y, z'
loop_
 _atom_site_type_symbol
 _atom_site_label
 _atom_site_symmetry_multiplicity
 _atom_site_fract_x
 _atom_site_fract_y
 _atom_site_fract_z
 _atom_site_fract_occupancy
 Li  Li1  1  0.38379  0.85708  0.62211  1
 Li  Li2  1  0.74269  0.35901  0.04529  1
 Li  Li3  1  0.85135  0.76112  0.34579  1
 Li  Li4  1  0.14999  0.25670  0.62667  1
 Li  Li5  1  0.29233  0.63398  0.99696  1
 Li  Li6  1  0.59474  0.10399  0.35954  1
 Li  Li7  1  0.70016  0.50697  0.61729  1
 O  O1  1  0.15228  0.78003  0.22975  1
 O  O2  1  0.54501  0.63220  0.79496  1
 O  O3  1  0.11629  0.90118  0.73974  1
 O  O4  1  0.85509  0.09028  0.23866  1
 O  O5  1  0.47097  0.37343  0.22386  1
 O  O6  1  0.83965  0.23501  0.75897  1
 Os  Os1  1  0.00364  0.01003  0.00140  1
