CIF file written using JARVIS-Tools package.
data_ZrTiCN
_symmetry_space_group_name_H-M  'R3m'
_cell_length_a       5.48778
_cell_length_b       5.48778
_cell_length_c       5.48778
_cell_angle_alpha    33.6719
_cell_angle_beta     33.6719
_cell_angle_gamma    33.6719

_symmetry_Int_Tables_number  160
_chemical_formula_structural  ZrTiCN
_chemical_formula_sum  ZrTiCN
_cell_volume  45.26039628146629
_cell_formula_units_Z  1
loop_
  _symmetry_equiv_pos_site_id
 _symmetry_equiv_pos_as_xyz
 1  'x, y, z'
loop_
 _atom_site_type_symbol
 _atom_site_label
 _atom_site_symmetry_multiplicity
 _atom_site_fract_x
 _atom_site_fract_y
 _atom_site_fract_z
 _atom_site_fract_occupancy
 C  C1  1  0.00550  0.00550  0.00550  1
 N  N1  1  0.49553  0.49553  0.49553  1
 Ti  Ti1  1  0.74878  0.74878  0.74878  1
 Zr  Zr1  1  0.25019  0.25019  0.25019  1
