CIF file written using JARVIS-Tools package.
data_SrLaTiMnO6
_symmetry_space_group_name_H-M  'R3'
_cell_length_a       5.51938
_cell_length_b       5.51938
_cell_length_c       5.51938
_cell_angle_alpha    60.5715
_cell_angle_beta     60.5714
_cell_angle_gamma    60.5715

_symmetry_Int_Tables_number  146
_chemical_formula_structural  SrLaTiMnO6
_chemical_formula_sum  SrLaTiMnO6
_cell_volume  120.42778697679337
_cell_formula_units_Z  1
loop_
  _symmetry_equiv_pos_site_id
 _symmetry_equiv_pos_as_xyz
 1  'x, y, z'
loop_
 _atom_site_type_symbol
 _atom_site_label
 _atom_site_symmetry_multiplicity
 _atom_site_fract_x
 _atom_site_fract_y
 _atom_site_fract_z
 _atom_site_fract_occupancy
 La  La1  1  0.25063  0.25063  0.25063  1
 Mn  Mn1  1  0.50000  0.50000  0.50000  1
 O  O1  1  0.20293  0.75151  0.29434  1
 O  O2  1  0.75151  0.29434  0.20293  1
 O  O3  1  0.29434  0.20293  0.75151  1
 O  O4  1  0.24773  0.69242  0.80967  1
 O  O5  1  0.69242  0.80967  0.24773  1
 O  O6  1  0.80967  0.24773  0.69242  1
 Sr  Sr1  1  0.74999  0.74999  0.74999  1
 Ti  Ti1  1  0.00077  0.00077  0.00077  1
