CIF file written using JARVIS-Tools package.
data_Hg2SeO3
_symmetry_space_group_name_H-M  'Ibam'
_cell_length_a       7.81825
_cell_length_b       8.94986
_cell_length_c       8.94986
_cell_angle_alpha    73.5046
_cell_angle_beta     64.1013
_cell_angle_gamma    64.1013

_symmetry_Int_Tables_number  72
_chemical_formula_structural  Hg2SeO3
_chemical_formula_sum  Hg8Se4O2
_cell_volume  503.3998797717321
_cell_formula_units_Z  4
loop_
  _symmetry_equiv_pos_site_id
 _symmetry_equiv_pos_as_xyz
 1  'x, y, z'
loop_
 _atom_site_type_symbol
 _atom_site_label
 _atom_site_symmetry_multiplicity
 _atom_site_fract_x
 _atom_site_fract_y
 _atom_site_fract_z
 _atom_site_fract_occupancy
 Hg  Hg1  1  0.36717  0.22446  0.56086  1
 Hg  Hg2  1  0.65248  0.43914  0.77554  1
 Hg  Hg3  1  0.84752  0.22446  0.56086  1
 Hg  Hg4  1  0.15248  0.77554  0.43914  1
 Hg  Hg5  1  0.86717  0.56086  0.22446  1
 Hg  Hg6  1  0.63283  0.77554  0.43914  1
 Hg  Hg7  1  0.34752  0.56086  0.22446  1
 Hg  Hg8  1  0.13283  0.43914  0.77554  1
 O  O1  1  0.88638  0.65200  0.92132  1
 O  O2  1  0.11362  0.34800  0.07868  1
 O  O3  1  0.61362  0.07868  0.34800  1
 O  O4  1  0.95970  0.07868  0.34800  1
 O  O5  1  0.82467  0.71184  0.63882  1
 O  O6  1  0.67533  0.36118  0.28816  1
 O  O7  1  0.54030  0.65200  0.92132  1
 O  O8  1  0.45970  0.34800  0.07868  1
 O  O9  1  0.04030  0.92132  0.65200  1
 O  O10  1  0.38638  0.92132  0.65200  1
 O  O11  1  0.32467  0.63882  0.71184  1
 O  O12  1  0.17533  0.28816  0.36118  1
 Se  Se1  1  0.30313  0.22945  0.16429  1
 Se  Se2  1  0.19687  0.83571  0.77055  1
 Se  Se3  1  0.69687  0.77055  0.83571  1
 Se  Se4  1  0.80313  0.16429  0.22945  1
