CIF file written using JARVIS-Tools package.
data_Mg2Pd
_symmetry_space_group_name_H-M  'I4/mmm'
_cell_length_a       5.52851
_cell_length_b       5.52851
_cell_length_c       5.52851
_cell_angle_alpha    145.717
_cell_angle_beta     145.717
_cell_angle_gamma    49.2673

_symmetry_Int_Tables_number  139
_chemical_formula_structural  Mg2Pd
_chemical_formula_sum  Mg2Pd
_cell_volume  53.370471756303445
_cell_formula_units_Z  1
loop_
  _symmetry_equiv_pos_site_id
 _symmetry_equiv_pos_as_xyz
 1  'x, y, z'
loop_
 _atom_site_type_symbol
 _atom_site_label
 _atom_site_symmetry_multiplicity
 _atom_site_fract_x
 _atom_site_fract_y
 _atom_site_fract_z
 _atom_site_fract_occupancy
 Mg  Mg1  1  0.64693  0.64693  0.00000  1
 Mg  Mg2  1  0.35307  0.35307  0.00000  1
 Pd  Pd1  1  0.00000  0.00000  0.00000  1
