CIF file written using JARVIS-Tools package.
data_SbO2F
_symmetry_space_group_name_H-M  'Cc'
_cell_length_a       5.0357
_cell_length_b       5.52296
_cell_length_c       5.0357
_cell_angle_alpha    118.904
_cell_angle_beta     61.8719
_cell_angle_gamma    118.904

_symmetry_Int_Tables_number  9
_chemical_formula_structural  SbO2F
_chemical_formula_sum  Sb2O4F2
_cell_volume  102.03470450435465
_cell_formula_units_Z  2
loop_
  _symmetry_equiv_pos_site_id
 _symmetry_equiv_pos_as_xyz
 1  'x, y, z'
loop_
 _atom_site_type_symbol
 _atom_site_label
 _atom_site_symmetry_multiplicity
 _atom_site_fract_x
 _atom_site_fract_y
 _atom_site_fract_z
 _atom_site_fract_occupancy
 F  F1  1  0.83631  0.40074  0.45796  1
 F  F2  1  0.95796  0.90074  0.33631  1
 O  O1  1  0.10221  0.41315  0.81837  1
 O  O2  1  0.45905  0.39961  0.12644  1
 O  O3  1  0.31837  0.91315  0.60221  1
 O  O4  1  0.62644  0.89961  0.95905  1
 Sb  Sb1  1  0.68931  0.15015  0.75278  1
 Sb  Sb2  1  0.25278  0.65015  0.18931  1
