CIF file written using JARVIS-Tools package.
data_Rb2InSbI6
_symmetry_space_group_name_H-M  'Fm-3m'
_cell_length_a       8.73083
_cell_length_b       8.73082
_cell_length_c       8.73083
_cell_angle_alpha    60
_cell_angle_beta     60
_cell_angle_gamma    60

_symmetry_Int_Tables_number  225
_chemical_formula_structural  Rb2InSbI6
_chemical_formula_sum  Rb2InSbI6
_cell_volume  470.59942829280465
_cell_formula_units_Z  1
loop_
  _symmetry_equiv_pos_site_id
 _symmetry_equiv_pos_as_xyz
 1  'x, y, z'
loop_
 _atom_site_type_symbol
 _atom_site_label
 _atom_site_symmetry_multiplicity
 _atom_site_fract_x
 _atom_site_fract_y
 _atom_site_fract_z
 _atom_site_fract_occupancy
 I  I1  1  0.75472  0.24528  0.24528  1
 I  I2  1  0.24528  0.24528  0.75472  1
 I  I3  1  0.24528  0.75472  0.75472  1
 I  I4  1  0.24528  0.75472  0.24528  1
 I  I5  1  0.75472  0.24528  0.75472  1
 I  I6  1  0.75472  0.75472  0.24528  1
 In  In1  1  0.50000  0.50000  0.50000  1
 Rb  Rb1  1  0.75000  0.75000  0.75000  1
 Rb  Rb2  1  0.25000  0.25000  0.25000  1
 Sb  Sb1  1  0.00000  0.00000  0.00000  1
