CIF file written using JARVIS-Tools package.
data_MgIn2
_symmetry_space_group_name_H-M  'R32'
_cell_length_a       6.16319
_cell_length_b       6.16319
_cell_length_c       6.16318
_cell_angle_alpha    56.2947
_cell_angle_beta     56.2948
_cell_angle_gamma    56.2947

_symmetry_Int_Tables_number  155
_chemical_formula_structural  MgIn2
_chemical_formula_sum  Mg2In4
_cell_volume  151.34823780299254
_cell_formula_units_Z  2
loop_
  _symmetry_equiv_pos_site_id
 _symmetry_equiv_pos_as_xyz
 1  'x, y, z'
loop_
 _atom_site_type_symbol
 _atom_site_label
 _atom_site_symmetry_multiplicity
 _atom_site_fract_x
 _atom_site_fract_y
 _atom_site_fract_z
 _atom_site_fract_occupancy
 In  In1  1  0.17421  0.82579  0.50000  1
 In  In2  1  0.82579  0.50000  0.17421  1
 In  In3  1  0.50000  0.17421  0.82579  1
 In  In4  1  0.00000  0.00000  0.00000  1
 Mg  Mg1  1  0.32943  0.32943  0.32943  1
 Mg  Mg2  1  0.67057  0.67057  0.67057  1
