CIF file written using JARVIS-Tools package.
data_K3BrCl2
_symmetry_space_group_name_H-M  'P-3m1'
_cell_length_a       4.49546
_cell_length_b       4.49546
_cell_length_c       11.0199
_cell_angle_alpha    90
_cell_angle_beta     90
_cell_angle_gamma    120

_symmetry_Int_Tables_number  164
_chemical_formula_structural  K3BrCl2
_chemical_formula_sum  K3BrCl2
_cell_volume  192.8656317372282
_cell_formula_units_Z  1
loop_
  _symmetry_equiv_pos_site_id
 _symmetry_equiv_pos_as_xyz
 1  'x, y, z'
loop_
 _atom_site_type_symbol
 _atom_site_label
 _atom_site_symmetry_multiplicity
 _atom_site_fract_x
 _atom_site_fract_y
 _atom_site_fract_z
 _atom_site_fract_occupancy
 Br  Br1  1  0.00000  0.00000  0.00000  1
 Cl  Cl1  1  0.33333  0.66667  0.66106  1
 Cl  Cl2  1  0.66667  0.33333  0.33894  1
 K  K1  1  0.00000  0.00000  0.50000  1
 K  K2  1  0.33333  0.66667  0.17768  1
 K  K3  1  0.66667  0.33333  0.82232  1
