CIF file written using JARVIS-Tools package.
data_Sc3Fe2Si3
_symmetry_space_group_name_H-M  'Cmcm'
_cell_length_a       3.9488
_cell_length_b       5.33697
_cell_length_c       12.9123
_cell_angle_alpha    90
_cell_angle_beta     90
_cell_angle_gamma    111.712

_symmetry_Int_Tables_number  63
_chemical_formula_structural  Sc3Fe2Si3
_chemical_formula_sum  Sc6Fe4Si6
_cell_volume  252.814508982656
_cell_formula_units_Z  2
loop_
  _symmetry_equiv_pos_site_id
 _symmetry_equiv_pos_as_xyz
 1  'x, y, z'
loop_
 _atom_site_type_symbol
 _atom_site_label
 _atom_site_symmetry_multiplicity
 _atom_site_fract_x
 _atom_site_fract_y
 _atom_site_fract_z
 _atom_site_fract_occupancy
 Fe  Fe1  1  0.21436  0.42872  0.08267  1
 Fe  Fe2  1  0.78564  0.57128  0.58267  1
 Fe  Fe3  1  0.21436  0.42872  0.41733  1
 Fe  Fe4  1  0.78564  0.57128  0.91733  1
 Sc  Sc1  1  0.36077  0.72154  0.75000  1
 Sc  Sc2  1  0.08049  0.16097  0.61272  1
 Sc  Sc3  1  0.08049  0.16097  0.88728  1
 Sc  Sc4  1  0.91951  0.83903  0.11272  1
 Sc  Sc5  1  0.63923  0.27846  0.25000  1
 Sc  Sc6  1  0.91951  0.83903  0.38728  1
 Si  Si1  1  0.33000  0.66000  0.25000  1
 Si  Si2  1  0.61728  0.23456  0.45908  1
 Si  Si3  1  0.61728  0.23456  0.04092  1
 Si  Si4  1  0.38272  0.76544  0.54092  1
 Si  Si5  1  0.67000  0.34000  0.75000  1
 Si  Si6  1  0.38272  0.76544  0.95908  1
