CIF file written using JARVIS-Tools package.
data_InGaCu2Se4
_symmetry_space_group_name_H-M  'I-4'
_cell_length_a       7.04981
_cell_length_b       7.04981
_cell_length_c       7.04981
_cell_angle_alpha    131.845
_cell_angle_beta     131.845
_cell_angle_gamma    70.4734

_symmetry_Int_Tables_number  82
_chemical_formula_structural  InGaCu2Se4
_chemical_formula_sum  InGaCu2Se4
_cell_volume  190.52413343177375
_cell_formula_units_Z  1
loop_
  _symmetry_equiv_pos_site_id
 _symmetry_equiv_pos_as_xyz
 1  'x, y, z'
loop_
 _atom_site_type_symbol
 _atom_site_label
 _atom_site_symmetry_multiplicity
 _atom_site_fract_x
 _atom_site_fract_y
 _atom_site_fract_z
 _atom_site_fract_occupancy
 Cu  Cu1  1  0.25000  0.75000  0.50000  1
 Cu  Cu2  1  0.00000  0.00000  0.00000  1
 Ga  Ga1  1  0.75000  0.25000  0.50000  1
 In  In1  1  0.50000  0.50000  0.00000  1
 Se  Se1  1  0.10504  0.10190  0.46858  1
 Se  Se2  1  0.63332  0.63646  0.53142  1
 Se  Se3  1  0.36354  0.89496  0.99686  1
 Se  Se4  1  0.89810  0.36668  0.00314  1
