CIF file written using JARVIS-Tools package.
data_WO3
_symmetry_space_group_name_H-M  'P-42_1m'
_cell_length_a       7.64057
_cell_length_b       7.64057
_cell_length_c       3.91617
_cell_angle_alpha    90
_cell_angle_beta     90
_cell_angle_gamma    90

_symmetry_Int_Tables_number  113
_chemical_formula_structural  WO3
_chemical_formula_sum  W4O2
_cell_volume  228.61915586512677
_cell_formula_units_Z  4
loop_
  _symmetry_equiv_pos_site_id
 _symmetry_equiv_pos_as_xyz
 1  'x, y, z'
loop_
 _atom_site_type_symbol
 _atom_site_label
 _atom_site_symmetry_multiplicity
 _atom_site_fract_x
 _atom_site_fract_y
 _atom_site_fract_z
 _atom_site_fract_occupancy
 O  O1  1  0.24395  0.74395  0.51102  1
 O  O2  1  0.74395  0.75605  0.48898  1
 O  O3  1  0.75605  0.25605  0.51102  1
 O  O4  1  0.25605  0.24395  0.48898  1
 O  O5  1  0.75090  0.50590  0.00467  1
 O  O6  1  0.74910  0.00590  0.99533  1
 O  O7  1  0.49410  0.75090  0.99533  1
 O  O8  1  0.24910  0.49410  0.00467  1
 O  O9  1  0.50590  0.24910  0.99533  1
 O  O10  1  0.99410  0.74910  0.00467  1
 O  O11  1  0.00590  0.25090  0.00467  1
 O  O12  1  0.25090  0.99410  0.99533  1
 W  W1  1  0.23111  0.73111  0.05650  1
 W  W2  1  0.76889  0.26889  0.05650  1
 W  W3  1  0.26889  0.23111  0.94350  1
 W  W4  1  0.73111  0.76889  0.94350  1
