CIF file written using JARVIS-Tools package.
data_U3P2S
_symmetry_space_group_name_H-M  'P-3m1'
_cell_length_a       3.96318
_cell_length_b       3.96318
_cell_length_c       9.42131
_cell_angle_alpha    90
_cell_angle_beta     90
_cell_angle_gamma    120

_symmetry_Int_Tables_number  164
_chemical_formula_structural  U3P2S
_chemical_formula_sum  U3P2S
_cell_volume  128.153177418399
_cell_formula_units_Z  1
loop_
  _symmetry_equiv_pos_site_id
 _symmetry_equiv_pos_as_xyz
 1  'x, y, z'
loop_
 _atom_site_type_symbol
 _atom_site_label
 _atom_site_symmetry_multiplicity
 _atom_site_fract_x
 _atom_site_fract_y
 _atom_site_fract_z
 _atom_site_fract_occupancy
 P  P1  1  0.33333  0.66667  0.66891  1
 P  P2  1  0.66667  0.33333  0.33109  1
 S  S1  1  0.00000  0.00000  0.00000  1
 U  U1  1  0.00000  0.00000  0.50000  1
 U  U2  1  0.33333  0.66667  0.16407  1
 U  U3  1  0.66667  0.33333  0.83593  1
