CIF file written using JARVIS-Tools package.
data_VCoO3
_symmetry_space_group_name_H-M  'R-3'
_cell_length_a       4.89229
_cell_length_b       5.4732
_cell_length_c       4.89142
_cell_angle_alpha    63.4527
_cell_angle_beta     120.012
_cell_angle_gamma    116.561

_symmetry_Int_Tables_number  148
_chemical_formula_structural  VCoO3
_chemical_formula_sum  V2Co2O6
_cell_volume  97.13730455648799
_cell_formula_units_Z  2
loop_
  _symmetry_equiv_pos_site_id
 _symmetry_equiv_pos_as_xyz
 1  'x, y, z'
loop_
 _atom_site_type_symbol
 _atom_site_label
 _atom_site_symmetry_multiplicity
 _atom_site_fract_x
 _atom_site_fract_y
 _atom_site_fract_z
 _atom_site_fract_occupancy
 Co  Co1  1  0.15266  0.45789  0.84735  1
 Co  Co2  1  0.84735  0.54211  0.15265  1
 O  O1  1  0.43212  0.23731  0.26584  1
 O  O2  1  0.56788  0.76269  0.73416  1
 O  O3  1  0.92880  0.76261  0.43212  1
 O  O4  1  0.07120  0.23739  0.56788  1
 O  O5  1  0.73416  0.23741  0.92891  1
 O  O6  1  0.26583  0.76259  0.07109  1
 V  V1  1  0.65018  0.95047  0.34987  1
 V  V2  1  0.34982  0.04953  0.65013  1
