CIF file written using JARVIS-Tools package.
data_V3O5F
_symmetry_space_group_name_H-M  'Pmn2_1'
_cell_length_a       4.62645
_cell_length_b       2.89146
_cell_length_c       13.8909
_cell_angle_alpha    90
_cell_angle_beta     89.9997
_cell_angle_gamma    90

_symmetry_Int_Tables_number  31
_chemical_formula_structural  V3O5F
_chemical_formula_sum  V6O0F2
_cell_volume  185.82113800748076
_cell_formula_units_Z  2
loop_
  _symmetry_equiv_pos_site_id
 _symmetry_equiv_pos_as_xyz
 1  'x, y, z'
loop_
 _atom_site_type_symbol
 _atom_site_label
 _atom_site_symmetry_multiplicity
 _atom_site_fract_x
 _atom_site_fract_y
 _atom_site_fract_z
 _atom_site_fract_occupancy
 F  F1  1  0.19781  0.50000  0.73259  1
 F  F2  1  0.30220  0.00000  0.23259  1
 O  O1  1  0.70464  0.00000  0.76631  1
 O  O2  1  0.79536  0.50000  0.26631  1
 O  O3  1  0.77548  0.50000  0.59875  1
 O  O4  1  0.72452  0.00000  0.09875  1
 O  O5  1  0.82279  0.50000  0.93397  1
 O  O6  1  0.67721  0.00000  0.43396  1
 O  O7  1  0.27436  0.00000  0.56762  1
 O  O8  1  0.32018  0.00000  0.89845  1
 O  O9  1  0.17982  0.50000  0.39845  1
 O  O10  1  0.22564  0.50000  0.06762  1
 V  V1  1  0.54147  0.50000  0.84290  1
 V  V2  1  0.46571  0.50000  0.50053  1
 V  V3  1  0.53584  0.50000  0.15889  1
 V  V4  1  0.96416  0.00000  0.65889  1
 V  V5  1  0.95853  0.00000  0.34290  1
 V  V6  1  0.03429  0.00000  0.00053  1
