CIF file written using JARVIS-Tools package.
data_BaCrS2
_symmetry_space_group_name_H-M  'P4/nmm'
_cell_length_a       4.61069
_cell_length_b       4.61068
_cell_length_c       9.1119
_cell_angle_alpha    90
_cell_angle_beta     90
_cell_angle_gamma    90

_symmetry_Int_Tables_number  129
_chemical_formula_structural  BaCrS2
_chemical_formula_sum  Ba2Cr2S4
_cell_volume  193.704418117073
_cell_formula_units_Z  2
loop_
  _symmetry_equiv_pos_site_id
 _symmetry_equiv_pos_as_xyz
 1  'x, y, z'
loop_
 _atom_site_type_symbol
 _atom_site_label
 _atom_site_symmetry_multiplicity
 _atom_site_fract_x
 _atom_site_fract_y
 _atom_site_fract_z
 _atom_site_fract_occupancy
 Ba  Ba1  1  0.75000  0.25000  0.69113  1
 Ba  Ba2  1  0.25000  0.75000  0.30887  1
 Cr  Cr1  1  0.25000  0.75000  0.91399  1
 Cr  Cr2  1  0.75000  0.25000  0.08601  1
 S  S1  1  0.25000  0.25000  1.00000  1
 S  S2  1  0.75000  0.75000  0.00000  1
 S  S3  1  0.25000  0.75000  0.65128  1
 S  S4  1  0.75000  0.25000  0.34872  1
