CIF file written using JARVIS-Tools package.
data_RbSmP4O12
_symmetry_space_group_name_H-M  'C2/c'
_cell_length_a       7.41822
_cell_length_b       7.41822
_cell_length_c       10.5862
_cell_angle_alpha    100.937
_cell_angle_beta     100.937
_cell_angle_gamma    116.361

_symmetry_Int_Tables_number  15
_chemical_formula_structural  RbSmP4O12
_chemical_formula_sum  Rb2Sm2P8O24
_cell_volume  487.0145128661107
_cell_formula_units_Z  2
loop_
  _symmetry_equiv_pos_site_id
 _symmetry_equiv_pos_as_xyz
 1  'x, y, z'
loop_
 _atom_site_type_symbol
 _atom_site_label
 _atom_site_symmetry_multiplicity
 _atom_site_fract_x
 _atom_site_fract_y
 _atom_site_fract_z
 _atom_site_fract_occupancy
 O  O1  1  0.36545  0.50958  0.09351  1
 O  O2  1  0.31383  0.82212  0.10260  1
 O  O3  1  0.82212  0.31383  0.60260  1
 O  O4  1  0.68617  0.17788  0.89740  1
 O  O5  1  0.90994  0.50965  0.10855  1
 O  O6  1  0.49035  0.09006  0.39145  1
 O  O7  1  0.09006  0.49035  0.89145  1
 O  O8  1  0.72383  0.47269  0.43213  1
 O  O9  1  0.50958  0.36545  0.59351  1
 O  O10  1  0.13884  0.15032  0.42545  1
 O  O11  1  0.15032  0.13884  0.92545  1
 O  O12  1  0.86116  0.84968  0.57455  1
 O  O13  1  0.47269  0.72383  0.93213  1
 O  O14  1  0.27617  0.52731  0.56787  1
 O  O15  1  0.52731  0.27617  0.06787  1
 O  O16  1  0.50965  0.90994  0.60855  1
 O  O17  1  0.17788  0.68617  0.39740  1
 O  O18  1  0.63455  0.49042  0.90649  1
 O  O19  1  0.74566  0.79874  0.81480  1
 O  O20  1  0.20126  0.25434  0.68520  1
 O  O21  1  0.25434  0.20126  0.18520  1
 O  O22  1  0.79874  0.74566  0.31480  1
 O  O23  1  0.49042  0.63455  0.40649  1
 O  O24  1  0.84968  0.86116  0.07455  1
 P  P1  1  0.70732  0.36734  0.99475  1
 P  P2  1  0.36734  0.70732  0.49475  1
 P  P3  1  0.29268  0.63266  0.00525  1
 P  P4  1  0.30418  0.26353  0.06507  1
 P  P5  1  0.73647  0.69582  0.43493  1
 P  P6  1  0.63266  0.29268  0.50525  1
 P  P7  1  0.26353  0.30418  0.56507  1
 P  P8  1  0.69582  0.73647  0.93493  1
 Rb  Rb1  1  0.81792  0.18208  0.25000  1
 Rb  Rb2  1  0.18208  0.81792  0.75000  1
 Sm  Sm1  1  0.12124  0.87876  0.25000  1
 Sm  Sm2  1  0.87876  0.12124  0.75000  1
