CIF file written using JARVIS-Tools package.
data_Th3Pd5
_symmetry_space_group_name_H-M  'P-62m'
_cell_length_a       7.70887
_cell_length_b       7.70886
_cell_length_c       3.46051
_cell_angle_alpha    90
_cell_angle_beta     90
_cell_angle_gamma    120

_symmetry_Int_Tables_number  189
_chemical_formula_structural  Th3Pd5
_chemical_formula_sum  Th3Pd5
_cell_volume  178.09480105302427
_cell_formula_units_Z  1
loop_
  _symmetry_equiv_pos_site_id
 _symmetry_equiv_pos_as_xyz
 1  'x, y, z'
loop_
 _atom_site_type_symbol
 _atom_site_label
 _atom_site_symmetry_multiplicity
 _atom_site_fract_x
 _atom_site_fract_y
 _atom_site_fract_z
 _atom_site_fract_occupancy
 Pd  Pd1  1  0.33333  0.66667  0.00000  1
 Pd  Pd2  1  0.66667  0.33333  0.00000  1
 Pd  Pd3  1  0.36381  0.00000  0.50000  1
 Pd  Pd4  1  0.63619  0.63619  0.50000  1
 Pd  Pd5  1  -0.00000  0.36381  0.50000  1
 Th  Th1  1  0.72860  0.00000  0.00000  1
 Th  Th2  1  0.27140  0.27140  0.00000  1
 Th  Th3  1  -0.00000  0.72860  0.00000  1
