CIF file written using JARVIS-Tools package.
data_CaCO3
_symmetry_space_group_name_H-M  'C2/c'
_cell_length_a       17.6664
_cell_length_b       9.61918
_cell_length_c       9.60945
_cell_angle_alpha    154.028
_cell_angle_beta     156.813
_cell_angle_gamma    12.0385

_symmetry_Int_Tables_number  15
_chemical_formula_structural  CaCO3
_chemical_formula_sum  Ca2C2O6
_cell_volume  134.1029749806084
_cell_formula_units_Z  2
loop_
  _symmetry_equiv_pos_site_id
 _symmetry_equiv_pos_as_xyz
 1  'x, y, z'
loop_
 _atom_site_type_symbol
 _atom_site_label
 _atom_site_symmetry_multiplicity
 _atom_site_fract_x
 _atom_site_fract_y
 _atom_site_fract_z
 _atom_site_fract_occupancy
 C  C1  1  0.76681  0.25000  0.53363  1
 C  C2  1  0.23319  0.75000  0.46637  1
 Ca  Ca1  1  0.00000  0.00000  0.00000  1
 Ca  Ca2  1  0.00000  0.50000  0.00000  1
 O  O1  1  0.54973  0.77469  0.41688  1
 O  O2  1  0.61260  0.25000  0.22520  1
 O  O3  1  0.86715  0.72531  0.41688  1
 O  O4  1  0.45027  0.22531  0.58312  1
 O  O5  1  0.38740  0.75000  -0.22520  1
 O  O6  1  0.13285  0.27469  0.58312  1
