CIF file written using JARVIS-Tools package.
data_Zr3Tl2OF12
_symmetry_space_group_name_H-M  'R-3m'
_cell_length_a       10.9531
_cell_length_b       10.9531
_cell_length_c       10.9531
_cell_angle_alpha    41.6659
_cell_angle_beta     41.6659
_cell_angle_gamma    41.6659

_symmetry_Int_Tables_number  166
_chemical_formula_structural  Zr3Tl2OF12
_chemical_formula_sum  Zr6Tl4O2F24
_cell_volume  524.9636928047813
_cell_formula_units_Z  2
loop_
  _symmetry_equiv_pos_site_id
 _symmetry_equiv_pos_as_xyz
 1  'x, y, z'
loop_
 _atom_site_type_symbol
 _atom_site_label
 _atom_site_symmetry_multiplicity
 _atom_site_fract_x
 _atom_site_fract_y
 _atom_site_fract_z
 _atom_site_fract_occupancy
 F  F1  1  0.29370  0.29370  0.62893  1
 F  F2  1  0.40311  0.91076  0.91076  1
 F  F3  1  0.59689  0.08924  0.08924  1
 F  F4  1  0.35175  0.64825  0.00000  1
 F  F5  1  0.08924  0.08924  0.59689  1
 F  F6  1  0.65095  0.65095  0.08129  1
 F  F7  1  0.65095  0.08129  0.65095  1
 F  F8  1  0.91076  0.91076  0.40311  1
 F  F9  1  0.08129  0.65095  0.65095  1
 F  F10  1  0.91076  0.40311  0.91076  1
 F  F11  1  0.34905  0.91871  0.34905  1
 F  F12  1  0.35175  0.00000  0.64825  1
 F  F13  1  -0.00000  0.64825  0.35175  1
 F  F14  1  0.64825  0.35175  -0.00000  1
 F  F15  1  0.64825  -0.00000  0.35175  1
 F  F16  1  0.91871  0.34905  0.34905  1
 F  F17  1  0.29370  0.62893  0.29370  1
 F  F18  1  0.34905  0.34905  0.91871  1
 F  F19  1  0.62893  0.29370  0.29370  1
 F  F20  1  0.37107  0.70630  0.70630  1
 F  F21  1  0.70630  0.37107  0.70630  1
 F  F22  1  0.70630  0.70630  0.37107  1
 F  F23  1  0.00000  0.35175  0.64825  1
 F  F24  1  0.08924  0.59689  0.08924  1
 O  O1  1  0.28745  0.28745  0.28745  1
 O  O2  1  0.71255  0.71255  0.71255  1
 Tl  Tl1  1  0.00000  0.00000  0.00000  1
 Tl  Tl2  1  0.86176  0.86176  0.86176  1
 Tl  Tl3  1  0.50000  0.50000  0.50000  1
 Tl  Tl4  1  0.13824  0.13824  0.13824  1
 Zr  Zr1  1  0.42386  0.42386  0.97035  1
 Zr  Zr2  1  0.42386  0.97035  0.42386  1
 Zr  Zr3  1  0.97035  0.42386  0.42386  1
 Zr  Zr4  1  0.02965  0.57614  0.57614  1
 Zr  Zr5  1  0.57614  0.57614  0.02965  1
 Zr  Zr6  1  0.57614  0.02965  0.57614  1
