CIF file written using JARVIS-Tools package.
data_TmGe3
_symmetry_space_group_name_H-M  'Cmcm'
_cell_length_a       3.91603
_cell_length_b       4.0203
_cell_length_c       10.5291
_cell_angle_alpha    101.006
_cell_angle_beta     90
_cell_angle_gamma    90

_symmetry_Int_Tables_number  63
_chemical_formula_structural  TmGe3
_chemical_formula_sum  Tm2Ge6
_cell_volume  162.71692329594953
_cell_formula_units_Z  2
loop_
  _symmetry_equiv_pos_site_id
 _symmetry_equiv_pos_as_xyz
 1  'x, y, z'
loop_
 _atom_site_type_symbol
 _atom_site_label
 _atom_site_symmetry_multiplicity
 _atom_site_fract_x
 _atom_site_fract_y
 _atom_site_fract_z
 _atom_site_fract_occupancy
 Ge  Ge1  1  0.75000  0.45923  0.91846  1
 Ge  Ge2  1  0.25000  0.54077  0.08154  1
 Ge  Ge3  1  0.75000  0.68813  0.37625  1
 Ge  Ge4  1  0.25000  0.31187  0.62375  1
 Ge  Ge5  1  0.25000  0.19017  0.38034  1
 Ge  Ge6  1  0.75000  0.80983  0.61966  1
 Tm  Tm1  1  0.75000  0.08179  0.16358  1
 Tm  Tm2  1  0.25000  0.91821  0.83642  1
