CIF file written using JARVIS-Tools package.
data_Li3Fe2Si2O8
_symmetry_space_group_name_H-M  'P1'
_cell_length_a       4.95369
_cell_length_b       5.25581
_cell_length_c       6.54652
_cell_angle_alpha    90.128
_cell_angle_beta     91.1618
_cell_angle_gamma    92.7037

_symmetry_Int_Tables_number  1
_chemical_formula_structural  Li3Fe2Si2O8
_chemical_formula_sum  Li3Fe2Si2O8
_cell_volume  170.21740141522173
_cell_formula_units_Z  1
loop_
  _symmetry_equiv_pos_site_id
 _symmetry_equiv_pos_as_xyz
 1  'x, y, z'
loop_
 _atom_site_type_symbol
 _atom_site_label
 _atom_site_symmetry_multiplicity
 _atom_site_fract_x
 _atom_site_fract_y
 _atom_site_fract_z
 _atom_site_fract_occupancy
 Fe  Fe1  1  0.48736  0.17143  0.99149  1
 Fe  Fe2  1  0.02597  0.81920  0.00050  1
 Li  Li1  1  0.49319  0.15888  0.50646  1
 Li  Li2  1  0.50464  0.65050  0.27835  1
 Li  Li3  1  0.99626  0.84686  0.50887  1
 O  O1  1  0.11369  0.18296  0.45651  1
 O  O2  1  0.09953  0.18575  0.04927  1
 O  O3  1  0.65639  0.31004  0.24272  1
 O  O4  1  0.55461  0.36734  0.75717  1
 O  O5  1  0.10013  0.63140  0.24532  1
 O  O6  1  0.16700  0.71984  0.75233  1
 O  O7  1  0.62232  0.81950  0.95380  1
 O  O8  1  0.60896  0.80148  0.53130  1
 Si  Si1  1  -0.00630  0.32537  0.26382  1
 Si  Si2  1  0.49263  0.67035  0.73680  1
