CIF file written using JARVIS-Tools package.
data_Cr3O5
_symmetry_space_group_name_H-M  'P1'
_cell_length_a       5.77241
_cell_length_b       5.66238
_cell_length_c       5.20481
_cell_angle_alpha    56.0906
_cell_angle_beta     58.0828
_cell_angle_gamma    49.3279

_symmetry_Int_Tables_number  1
_chemical_formula_structural  Cr3O5
_chemical_formula_sum  Cr3O5
_cell_volume  103.33503874167128
_cell_formula_units_Z  1
loop_
  _symmetry_equiv_pos_site_id
 _symmetry_equiv_pos_as_xyz
 1  'x, y, z'
loop_
 _atom_site_type_symbol
 _atom_site_label
 _atom_site_symmetry_multiplicity
 _atom_site_fract_x
 _atom_site_fract_y
 _atom_site_fract_z
 _atom_site_fract_occupancy
 Cr  Cr1  1  0.84861  0.90947  0.80151  1
 Cr  Cr2  1  0.20973  0.09894  0.15875  1
 Cr  Cr3  1  0.28078  0.35072  0.39046  1
 O  O1  1  0.10728  0.76699  0.40608  1
 O  O2  1  0.46817  0.04886  0.75228  1
 O  O3  1  0.97441  0.20388  0.57418  1
 O  O4  1  0.57007  -0.01299  0.20653  1
 O  O5  1  0.14063  0.53499  0.00873  1
