CIF file written using JARVIS-Tools package.
data_U3Al3NiRu2
_symmetry_space_group_name_H-M  'P-62m'
_cell_length_a       3.98891
_cell_length_b       6.87884
_cell_length_c       6.87834
_cell_angle_alpha    120.002
_cell_angle_beta     90
_cell_angle_gamma    90

_symmetry_Int_Tables_number  189
_chemical_formula_structural  U3Al3NiRu2
_chemical_formula_sum  U3Al3NiRu2
_cell_volume  163.44573677574846
_cell_formula_units_Z  1
loop_
  _symmetry_equiv_pos_site_id
 _symmetry_equiv_pos_as_xyz
 1  'x, y, z'
loop_
 _atom_site_type_symbol
 _atom_site_label
 _atom_site_symmetry_multiplicity
 _atom_site_fract_x
 _atom_site_fract_y
 _atom_site_fract_z
 _atom_site_fract_occupancy
 Al  Al1  1  0.00000  0.23148  -0.00000  1
 Al  Al2  1  0.00000  0.76850  0.76850  1
 Al  Al3  1  0.00000  -0.00000  0.23150  1
 Ni  Ni1  1  0.50000  0.99998  -0.00000  1
 Ru  Ru1  1  0.00000  0.33334  0.66669  1
 Ru  Ru2  1  0.00000  0.66665  0.33331  1
 U  U1  1  0.50000  0.57976  -0.00000  1
 U  U2  1  0.50000  0.42021  0.42023  1
 U  U3  1  0.50000  0.99998  0.57977  1
