CIF file written using JARVIS-Tools package.
data_PCl5
_symmetry_space_group_name_H-M  'P4/n'
_cell_length_a       8.98271
_cell_length_b       8.98271
_cell_length_c       7.63468
_cell_angle_alpha    90
_cell_angle_beta     90
_cell_angle_gamma    90

_symmetry_Int_Tables_number  85
_chemical_formula_structural  PCl5
_chemical_formula_sum  P4Cl20
_cell_volume  616.0362230061721
_cell_formula_units_Z  4
loop_
  _symmetry_equiv_pos_site_id
 _symmetry_equiv_pos_as_xyz
 1  'x, y, z'
loop_
 _atom_site_type_symbol
 _atom_site_label
 _atom_site_symmetry_multiplicity
 _atom_site_fract_x
 _atom_site_fract_y
 _atom_site_fract_z
 _atom_site_fract_occupancy
 Cl  Cl1  1  0.50000  0.00000  0.32167  1
 Cl  Cl2  1  0.82846  0.05112  0.14758  1
 Cl  Cl3  1  0.55112  0.67154  0.14758  1
 Cl  Cl4  1  0.44888  0.32846  0.14758  1
 Cl  Cl5  1  0.17154  0.94888  0.14758  1
 Cl  Cl6  1  0.67154  0.44888  0.85242  1
 Cl  Cl7  1  0.94888  0.82846  0.85242  1
 Cl  Cl8  1  0.05112  0.17154  0.85242  1
 Cl  Cl9  1  0.07896  0.27178  0.39139  1
 Cl  Cl10  1  0.32846  0.55112  0.85242  1
 Cl  Cl11  1  0.00000  0.50000  0.10368  1
 Cl  Cl12  1  0.22822  0.57896  0.39139  1
 Cl  Cl13  1  0.00000  0.50000  0.67833  1
 Cl  Cl14  1  0.72822  0.07896  0.60861  1
 Cl  Cl15  1  0.57896  0.77178  0.60861  1
 Cl  Cl16  1  0.42104  0.22822  0.60861  1
 Cl  Cl17  1  0.27178  0.92104  0.60861  1
 Cl  Cl18  1  0.77178  0.42104  0.39139  1
 Cl  Cl19  1  0.92104  0.72822  0.39139  1
 Cl  Cl20  1  0.50000  0.00000  0.89632  1
 P  P1  1  0.00000  0.50000  0.38617  1
 P  P2  1  0.50000  0.00000  0.61383  1
 P  P3  1  0.00000  0.00000  0.00000  1
 P  P4  1  0.50000  0.50000  0.00000  1
