CIF file written using JARVIS-Tools package.
data_Li2NiO3
_symmetry_space_group_name_H-M  'C2/m'
_cell_length_a       4.88725
_cell_length_b       4.88725
_cell_length_c       4.95973
_cell_angle_alpha    99.5643
_cell_angle_beta     99.5643
_cell_angle_gamma    119.926

_symmetry_Int_Tables_number  12
_chemical_formula_structural  Li2NiO3
_chemical_formula_sum  Li4Ni2O6
_cell_volume  96.84770142267875
_cell_formula_units_Z  2
loop_
  _symmetry_equiv_pos_site_id
 _symmetry_equiv_pos_as_xyz
 1  'x, y, z'
loop_
 _atom_site_type_symbol
 _atom_site_label
 _atom_site_symmetry_multiplicity
 _atom_site_fract_x
 _atom_site_fract_y
 _atom_site_fract_z
 _atom_site_fract_occupancy
 Li  Li1  1  0.33674  0.66326  0.50000  1
 Li  Li2  1  -0.00000  -0.00000  0.50000  1
 Li  Li3  1  0.66326  0.33674  0.50000  1
 Li  Li4  1  0.50000  0.50000  0.00000  1
 Ni  Ni1  1  0.16683  0.83317  0.00000  1
 Ni  Ni2  1  0.83317  0.16683  -0.00000  1
 O  O1  1  0.57488  0.93095  0.22393  1
 O  O2  1  0.42512  0.06905  0.77607  1
 O  O3  1  0.77958  0.77958  0.77275  1
 O  O4  1  0.93095  0.57488  0.22393  1
 O  O5  1  0.06905  0.42512  0.77607  1
 O  O6  1  0.22042  0.22042  0.22725  1
