CIF file written using JARVIS-Tools package.
data_CrFeAs2
_symmetry_space_group_name_H-M  'Pmn2_1'
_cell_length_a       3.50195
_cell_length_b       5.45709
_cell_length_c       6.07889
_cell_angle_alpha    90
_cell_angle_beta     90
_cell_angle_gamma    90

_symmetry_Int_Tables_number  31
_chemical_formula_structural  CrFeAs2
_chemical_formula_sum  Cr2Fe2As4
_cell_volume  116.1704997358236
_cell_formula_units_Z  2
loop_
  _symmetry_equiv_pos_site_id
 _symmetry_equiv_pos_as_xyz
 1  'x, y, z'
loop_
 _atom_site_type_symbol
 _atom_site_label
 _atom_site_symmetry_multiplicity
 _atom_site_fract_x
 _atom_site_fract_y
 _atom_site_fract_z
 _atom_site_fract_occupancy
 As  As1  1  0.50000  0.03998  0.08616  1
 As  As2  1  0.50000  0.55686  0.41750  1
 As  As3  1  0.00000  0.44314  0.91750  1
 As  As4  1  0.00000  0.96002  0.58616  1
 Cr  Cr1  1  0.50000  0.74393  0.79937  1
 Cr  Cr2  1  0.00000  0.25607  0.29937  1
 Fe  Fe1  1  0.50000  0.25025  0.69698  1
 Fe  Fe2  1  0.00000  0.74975  0.19698  1
