CIF file written using JARVIS-Tools package.
data_Mn8O13F3
_symmetry_space_group_name_H-M  'P1'
_cell_length_a       5.42896
_cell_length_b       6.50509
_cell_length_c       6.54548
_cell_angle_alpha    95.7855
_cell_angle_beta     90.8439
_cell_angle_gamma    90.0794

_symmetry_Int_Tables_number  1
_chemical_formula_structural  Mn8O13F3
_chemical_formula_sum  Mn8O3F3
_cell_volume  229.95613424850987
_cell_formula_units_Z  1
loop_
  _symmetry_equiv_pos_site_id
 _symmetry_equiv_pos_as_xyz
 1  'x, y, z'
loop_
 _atom_site_type_symbol
 _atom_site_label
 _atom_site_symmetry_multiplicity
 _atom_site_fract_x
 _atom_site_fract_y
 _atom_site_fract_z
 _atom_site_fract_occupancy
 F  F1  1  0.13456  0.83696  0.90855  1
 F  F2  1  0.60357  0.92461  0.35048  1
 F  F3  1  0.61762  0.32704  0.41399  1
 Mn  Mn1  1  0.64524  0.87611  0.64000  1
 Mn  Mn2  1  0.37737  0.61196  0.86895  1
 Mn  Mn3  1  0.64688  0.37442  0.11527  1
 Mn  Mn4  1  0.14387  0.13886  0.87278  1
 Mn  Mn5  1  0.87086  0.38151  0.64083  1
 Mn  Mn6  1  0.31824  0.12780  0.37808  1
 Mn  Mn7  1  0.85181  0.87433  0.12306  1
 Mn  Mn8  1  0.14423  0.62550  0.37489  1
 O  O1  1  0.88180  0.59305  0.17188  1
 O  O2  1  0.88008  0.15709  0.07221  1
 O  O3  1  0.37951  0.17222  0.09550  1
 O  O4  1  0.38896  0.57656  0.15488  1
 O  O5  1  0.10419  0.34456  0.42608  1
 O  O6  1  0.37759  0.08150  0.65670  1
 O  O7  1  0.12551  0.41231  0.82950  1
 O  O8  1  0.88277  0.65433  0.57708  1
 O  O9  1  0.62627  0.41842  0.83886  1
 O  O10  1  0.38607  0.67058  0.59342  1
 O  O11  1  0.62138  0.82338  0.90437  1
 O  O12  1  0.88214  0.09104  0.67074  1
 O  O13  1  0.10948  0.90588  0.32191  1
