CIF file written using JARVIS-Tools package.
data_Ti2CdO6
_symmetry_space_group_name_H-M  'P-31m'
_cell_length_a       4.53948
_cell_length_b       5.21883
_cell_length_c       5.21874
_cell_angle_alpha    119.999
_cell_angle_beta     89.9956
_cell_angle_gamma    90.0022

_symmetry_Int_Tables_number  162
_chemical_formula_structural  Ti2CdO6
_chemical_formula_sum  Ti2CdO6
_cell_volume  107.07227808450351
_cell_formula_units_Z  1
loop_
  _symmetry_equiv_pos_site_id
 _symmetry_equiv_pos_as_xyz
 1  'x, y, z'
loop_
 _atom_site_type_symbol
 _atom_site_label
 _atom_site_symmetry_multiplicity
 _atom_site_fract_x
 _atom_site_fract_y
 _atom_site_fract_z
 _atom_site_fract_occupancy
 Cd  Cd1  1  0.00000  0.00000  0.00000  1
 O  O1  1  0.27331  0.36278  0.36279  1
 O  O2  1  0.27331  0.63722  0.00001  1
 O  O3  1  0.27330  0.00000  0.63721  1
 O  O4  1  0.72669  0.63722  0.63721  1
 O  O5  1  0.72669  0.36278  -0.00001  1
 O  O6  1  0.72670  -0.00000  0.36279  1
 Ti  Ti1  1  0.50000  0.66666  0.33333  1
 Ti  Ti2  1  0.50000  0.33334  0.66667  1
