CIF file written using JARVIS-Tools package.
data_Rb2LiVCl6
_symmetry_space_group_name_H-M  'P-3m1'
_cell_length_a       6.93259
_cell_length_b       6.93259
_cell_length_c       5.9322
_cell_angle_alpha    90
_cell_angle_beta     90
_cell_angle_gamma    120

_symmetry_Int_Tables_number  164
_chemical_formula_structural  Rb2LiVCl6
_chemical_formula_sum  Rb2LiVCl6
_cell_volume  246.9091970044403
_cell_formula_units_Z  1
loop_
  _symmetry_equiv_pos_site_id
 _symmetry_equiv_pos_as_xyz
 1  'x, y, z'
loop_
 _atom_site_type_symbol
 _atom_site_label
 _atom_site_symmetry_multiplicity
 _atom_site_fract_x
 _atom_site_fract_y
 _atom_site_fract_z
 _atom_site_fract_occupancy
 Cl  Cl1  1  0.83828  0.16172  0.26435  1
 Cl  Cl2  1  0.16172  0.83828  0.73565  1
 Cl  Cl3  1  0.83828  0.67655  0.26435  1
 Cl  Cl4  1  0.16172  0.32345  0.73565  1
 Cl  Cl5  1  0.32345  0.16172  0.26435  1
 Cl  Cl6  1  0.67655  0.83828  0.73565  1
 Li  Li1  1  0.00000  0.00000  0.00000  1
 Rb  Rb1  1  0.33333  0.66667  0.25160  1
 Rb  Rb2  1  0.66667  0.33333  0.74840  1
 V  V1  1  0.00000  0.00000  0.50000  1
