CIF file written using JARVIS-Tools package.
data_Na3Fe5O9
_symmetry_space_group_name_H-M  'C2/c'
_cell_length_a       5.25029
_cell_length_b       9.05602
_cell_length_c       9.05602
_cell_angle_alpha    83.9496
_cell_angle_beta     90.4125
_cell_angle_gamma    90.4125

_symmetry_Int_Tables_number  15
_chemical_formula_structural  Na3Fe5O9
_chemical_formula_sum  Na6Fe0O8
_cell_volume  428.16511863549624
_cell_formula_units_Z  2
loop_
  _symmetry_equiv_pos_site_id
 _symmetry_equiv_pos_as_xyz
 1  'x, y, z'
loop_
 _atom_site_type_symbol
 _atom_site_label
 _atom_site_symmetry_multiplicity
 _atom_site_fract_x
 _atom_site_fract_y
 _atom_site_fract_z
 _atom_site_fract_occupancy
 Fe  Fe1  1  0.22430  0.20205  0.56478  1
 Fe  Fe2  1  0.78086  0.29928  0.97959  1
 Fe  Fe3  1  0.72430  0.56478  0.20205  1
 Fe  Fe4  1  0.77570  0.79795  0.43522  1
 Fe  Fe5  1  0.27570  0.43522  0.79795  1
 Fe  Fe6  1  0.71914  0.02041  0.70072  1
 Fe  Fe7  1  0.25000  0.06707  0.93293  1
 Fe  Fe8  1  0.75000  0.93293  0.06707  1
 Fe  Fe9  1  0.28086  0.97959  0.29928  1
 Fe  Fe10  1  0.21914  0.70072  0.02041  1
 Na  Na1  1  0.72588  0.68153  0.84031  1
 Na  Na2  1  0.75000  0.40738  0.59262  1
 Na  Na3  1  0.22588  0.84031  0.68153  1
 Na  Na4  1  0.27412  0.31847  0.15969  1
 Na  Na5  1  0.77412  0.15969  0.31847  1
 Na  Na6  1  0.25000  0.59262  0.40738  1
 O  O1  1  0.36869  0.56636  0.16519  1
 O  O2  1  0.75000  0.59443  0.40557  1
 O  O3  1  0.62404  0.91500  0.27017  1
 O  O4  1  0.12404  0.27017  0.91500  1
 O  O5  1  0.37596  0.08500  0.72983  1
 O  O6  1  0.63131  0.43364  0.83481  1
 O  O7  1  0.86869  0.16519  0.56636  1
 O  O8  1  0.87596  0.72983  0.08500  1
 O  O9  1  0.66734  0.83403  0.62453  1
 O  O10  1  0.16734  0.62453  0.83403  1
 O  O11  1  0.33266  0.16597  0.37547  1
 O  O12  1  0.57868  0.13480  0.02666  1
 O  O13  1  0.92132  0.97334  0.86520  1
 O  O14  1  0.42132  0.86520  0.97334  1
 O  O15  1  0.07868  0.02666  0.13480  1
 O  O16  1  0.13131  0.83481  0.43364  1
 O  O17  1  0.83266  0.37547  0.16597  1
 O  O18  1  0.25000  0.40557  0.59443  1
