CIF file written using JARVIS-Tools package.
data_USiOs2C
_symmetry_space_group_name_H-M  'Cmcm'
_cell_length_a       6.02248
_cell_length_b       6.02248
_cell_length_c       6.98298
_cell_angle_alpha    90
_cell_angle_beta     90
_cell_angle_gamma    142.648

_symmetry_Int_Tables_number  63
_chemical_formula_structural  USiOs2C
_chemical_formula_sum  U2Si2Os4C2
_cell_volume  153.66365625991457
_cell_formula_units_Z  2
loop_
  _symmetry_equiv_pos_site_id
 _symmetry_equiv_pos_as_xyz
 1  'x, y, z'
loop_
 _atom_site_type_symbol
 _atom_site_label
 _atom_site_symmetry_multiplicity
 _atom_site_fract_x
 _atom_site_fract_y
 _atom_site_fract_z
 _atom_site_fract_occupancy
 C  C1  1  0.00000  0.00000  0.00000  1
 C  C2  1  0.00000  0.00000  0.50000  1
 Os  Os1  1  0.83592  0.16408  0.05164  1
 Os  Os2  1  0.16408  0.83592  0.94836  1
 Os  Os3  1  0.16408  0.83592  0.55164  1
 Os  Os4  1  0.83592  0.16408  0.44836  1
 Si  Si1  1  0.27466  0.72534  0.25000  1
 Si  Si2  1  0.72534  0.27466  0.75000  1
 U  U1  1  0.55368  0.44632  0.25000  1
 U  U2  1  0.44632  0.55368  0.75000  1
