CIF file written using JARVIS-Tools package.
data_Mg3BeAl8O16
_symmetry_space_group_name_H-M  'P6_3mc'
_cell_length_a       5.72782
_cell_length_b       5.72782
_cell_length_c       18.476
_cell_angle_alpha    90
_cell_angle_beta     90
_cell_angle_gamma    120

_symmetry_Int_Tables_number  186
_chemical_formula_structural  Mg3BeAl8O16
_chemical_formula_sum  Mg6Be2Al6O32
_cell_volume  524.9502494492925
_cell_formula_units_Z  2
loop_
  _symmetry_equiv_pos_site_id
 _symmetry_equiv_pos_as_xyz
 1  'x, y, z'
loop_
 _atom_site_type_symbol
 _atom_site_label
 _atom_site_symmetry_multiplicity
 _atom_site_fract_x
 _atom_site_fract_y
 _atom_site_fract_z
 _atom_site_fract_occupancy
 Al  Al1  1  0.16682  0.33365  0.13923  1
 Al  Al2  1  0.00308  0.50154  0.89359  1
 Al  Al3  1  0.33333  0.66667  0.54956  1
 Al  Al4  1  0.66667  0.33333  0.04956  1
 Al  Al5  1  0.99692  0.49846  0.39359  1
 Al  Al6  1  0.49846  0.99692  0.89359  1
 Al  Al7  1  0.50154  0.49846  0.39359  1
 Al  Al8  1  0.66667  0.33333  0.76708  1
 Al  Al9  1  0.33333  0.66667  0.26708  1
 Al  Al10  1  0.66635  0.83318  0.13923  1
 Al  Al11  1  0.83318  0.16682  0.63923  1
 Al  Al12  1  0.49846  0.50154  0.89359  1
 Al  Al13  1  0.50154  0.00308  0.39359  1
 Al  Al14  1  0.16682  0.83318  0.13923  1
 Al  Al15  1  0.83318  0.66635  0.63923  1
 Al  Al16  1  0.33365  0.16682  0.63923  1
 Be  Be1  1  0.66667  0.33333  0.49665  1
 Be  Be2  1  0.33333  0.66667  0.99665  1
 Mg  Mg1  1  0.00000  0.00000  0.99991  1
 Mg  Mg2  1  0.33333  0.66667  0.73374  1
 Mg  Mg3  1  0.00000  0.00000  0.29937  1
 Mg  Mg4  1  0.00000  0.00000  0.79937  1
 Mg  Mg5  1  0.00000  0.00000  0.49991  1
 Mg  Mg6  1  0.66667  0.33333  0.23374  1
 O  O1  1  0.18526  0.81474  0.95270  1
 O  O2  1  0.81474  0.62948  0.45270  1
 O  O3  1  0.37052  0.18526  0.45270  1
 O  O4  1  0.62948  0.81474  0.95270  1
 O  O5  1  0.18526  0.37052  0.95270  1
 O  O6  1  0.81474  0.18526  0.45270  1
 O  O7  1  0.33333  0.66667  0.83864  1
 O  O8  1  0.18555  0.37111  0.33445  1
 O  O9  1  0.37111  0.18555  0.83445  1
 O  O10  1  0.33333  0.66667  0.08382  1
 O  O11  1  0.62889  0.81445  0.33445  1
 O  O12  1  0.18555  0.81445  0.33445  1
 O  O13  1  0.81445  0.18555  0.83445  1
 O  O14  1  0.66667  0.33333  0.33864  1
 O  O15  1  0.81445  0.62889  0.83445  1
 O  O16  1  0.67678  0.83839  0.58258  1
 O  O17  1  0.00000  0.00000  0.69149  1
 O  O18  1  0.16161  0.32322  0.58258  1
 O  O19  1  0.51916  0.03833  0.69983  1
 O  O20  1  0.03833  0.51916  0.19983  1
 O  O21  1  0.48084  0.51916  0.19983  1
 O  O22  1  0.96167  0.48084  0.69983  1
 O  O23  1  0.48084  0.96167  0.19983  1
 O  O24  1  0.51916  0.48084  0.69983  1
 O  O25  1  0.00000  0.00000  0.19149  1
 O  O26  1  0.83839  0.67678  0.08258  1
 O  O27  1  0.33333  0.66667  0.45171  1
 O  O28  1  0.16161  0.83839  0.58258  1
 O  O29  1  0.83839  0.16161  0.08258  1
 O  O30  1  0.32322  0.16161  0.08258  1
 O  O31  1  0.66667  0.33333  0.95171  1
 O  O32  1  0.66667  0.33333  0.58382  1
