CIF file written using JARVIS-Tools package.
data_La2Ru2I
_symmetry_space_group_name_H-M  'P6_3/mmc'
_cell_length_a       4.33251
_cell_length_b       4.3325
_cell_length_c       17.7919
_cell_angle_alpha    90
_cell_angle_beta     90
_cell_angle_gamma    120

_symmetry_Int_Tables_number  194
_chemical_formula_structural  La2Ru2I
_chemical_formula_sum  La4Ru4I2
_cell_volume  289.222396161725
_cell_formula_units_Z  2
loop_
  _symmetry_equiv_pos_site_id
 _symmetry_equiv_pos_as_xyz
 1  'x, y, z'
loop_
 _atom_site_type_symbol
 _atom_site_label
 _atom_site_symmetry_multiplicity
 _atom_site_fract_x
 _atom_site_fract_y
 _atom_site_fract_z
 _atom_site_fract_occupancy
 I  I1  1  0.33333  0.66667  0.25000  1
 I  I2  1  0.66667  0.33333  0.75000  1
 La  La1  1  0.00000  0.00000  0.10613  1
 La  La2  1  0.00000  0.00000  0.89387  1
 La  La3  1  0.00000  0.00000  0.60613  1
 La  La4  1  0.00000  0.00000  0.39387  1
 Ru  Ru1  1  0.33333  0.66667  0.50295  1
 Ru  Ru2  1  0.66667  0.33333  0.49705  1
 Ru  Ru3  1  0.66667  0.33333  0.00295  1
 Ru  Ru4  1  0.33333  0.66667  0.99705  1
