CIF file written using JARVIS-Tools package.
data_BaNaN
_symmetry_space_group_name_H-M  'P6_3mc'
_cell_length_a       4.08674
_cell_length_b       4.08674
_cell_length_c       9.69241
_cell_angle_alpha    90
_cell_angle_beta     90
_cell_angle_gamma    120

_symmetry_Int_Tables_number  186
_chemical_formula_structural  BaNaN
_chemical_formula_sum  Ba2Na2N2
_cell_volume  140.1900060051574
_cell_formula_units_Z  2
loop_
  _symmetry_equiv_pos_site_id
 _symmetry_equiv_pos_as_xyz
 1  'x, y, z'
loop_
 _atom_site_type_symbol
 _atom_site_label
 _atom_site_symmetry_multiplicity
 _atom_site_fract_x
 _atom_site_fract_y
 _atom_site_fract_z
 _atom_site_fract_occupancy
 Ba  Ba1  1  -0.00000  0.00000  0.49736  1
 Ba  Ba2  1  -0.00000  1.00000  -0.00264  1
 N  N1  1  0.33333  0.66667  0.62442  1
 N  N2  1  0.66667  0.33333  0.12442  1
 Na  Na1  1  0.66667  0.33333  0.72286  1
 Na  Na2  1  0.33333  0.66667  0.22286  1
