CIF file written using JARVIS-Tools package.
data_ErBi3
_symmetry_space_group_name_H-M  'P6_3/mmc'
_cell_length_a       6.84748
_cell_length_b       6.84748
_cell_length_c       5.9363
_cell_angle_alpha    90
_cell_angle_beta     90
_cell_angle_gamma    120

_symmetry_Int_Tables_number  194
_chemical_formula_structural  ErBi3
_chemical_formula_sum  Er2Bi6
_cell_volume  241.05063492295287
_cell_formula_units_Z  2
loop_
  _symmetry_equiv_pos_site_id
 _symmetry_equiv_pos_as_xyz
 1  'x, y, z'
loop_
 _atom_site_type_symbol
 _atom_site_label
 _atom_site_symmetry_multiplicity
 _atom_site_fract_x
 _atom_site_fract_y
 _atom_site_fract_z
 _atom_site_fract_occupancy
 Bi  Bi1  1  0.17385  0.34770  0.25000  1
 Bi  Bi2  1  0.65230  0.82615  0.25000  1
 Bi  Bi3  1  0.17385  0.82615  0.25000  1
 Bi  Bi4  1  0.82615  0.65230  0.75000  1
 Bi  Bi5  1  0.34770  0.17385  0.75000  1
 Bi  Bi6  1  0.82615  0.17385  0.75000  1
 Er  Er1  1  0.33333  0.66667  0.75000  1
 Er  Er2  1  0.66667  0.33333  0.25000  1
