CIF file written using JARVIS-Tools package.
data_Mg5Pb
_symmetry_space_group_name_H-M  'R32'
_cell_length_a       6.1758
_cell_length_b       6.1758
_cell_length_c       6.1758
_cell_angle_alpha    53.6454
_cell_angle_beta     53.6454
_cell_angle_gamma    53.6454

_symmetry_Int_Tables_number  155
_chemical_formula_structural  Mg5Pb
_chemical_formula_sum  Mg5Pb
_cell_volume  141.80455816670886
_cell_formula_units_Z  1
loop_
  _symmetry_equiv_pos_site_id
 _symmetry_equiv_pos_as_xyz
 1  'x, y, z'
loop_
 _atom_site_type_symbol
 _atom_site_label
 _atom_site_symmetry_multiplicity
 _atom_site_fract_x
 _atom_site_fract_y
 _atom_site_fract_z
 _atom_site_fract_occupancy
 Mg  Mg1  1  0.00000  0.67107  0.32893  1
 Mg  Mg2  1  0.67107  0.32893  -0.00000  1
 Mg  Mg3  1  0.32893  -0.00000  0.67107  1
 Mg  Mg4  1  0.83080  0.83080  0.83080  1
 Mg  Mg5  1  0.16920  0.16920  0.16920  1
 Pb  Pb1  1  0.50000  0.50000  0.50000  1
