CIF file written using JARVIS-Tools package.
data_Yb2CdSb2
_symmetry_space_group_name_H-M  'Cmc2_1'
_cell_length_a       4.63105
_cell_length_b       7.14691
_cell_length_c       8.99152
_cell_angle_alpha    90
_cell_angle_beta     104.923
_cell_angle_gamma    90

_symmetry_Int_Tables_number  36
_chemical_formula_structural  Yb2CdSb2
_chemical_formula_sum  Yb4Cd2Sb4
_cell_volume  287.56133266490014
_cell_formula_units_Z  2
loop_
  _symmetry_equiv_pos_site_id
 _symmetry_equiv_pos_as_xyz
 1  'x, y, z'
loop_
 _atom_site_type_symbol
 _atom_site_label
 _atom_site_symmetry_multiplicity
 _atom_site_fract_x
 _atom_site_fract_y
 _atom_site_fract_z
 _atom_site_fract_occupancy
 Cd  Cd1  1  0.90196  0.39617  0.80391  1
 Cd  Cd2  1  0.09804  0.89617  0.19609  1
 Sb  Sb1  1  0.31994  0.51464  0.63988  1
 Sb  Sb2  1  0.68006  0.01464  0.36012  1
 Sb  Sb3  1  0.06938  0.49437  0.13876  1
 Sb  Sb4  1  0.93062  0.99437  0.86124  1
 Yb  Yb1  1  0.47957  0.71858  0.95915  1
 Yb  Yb2  1  0.52043  0.21858  0.04085  1
 Yb  Yb3  1  0.69741  0.53376  0.39483  1
 Yb  Yb4  1  0.30259  0.03376  0.60517  1
