CIF file written using JARVIS-Tools package.
data_CdHg3
_symmetry_space_group_name_H-M  'I4/mmm'
_cell_length_a       6.21254
_cell_length_b       6.21254
_cell_length_c       6.21254
_cell_angle_alpha    138.385
_cell_angle_beta     138.385
_cell_angle_gamma    60.3137

_symmetry_Int_Tables_number  139
_chemical_formula_structural  CdHg3
_chemical_formula_sum  CdHg3
_cell_volume  104.64648420857036
_cell_formula_units_Z  1
loop_
  _symmetry_equiv_pos_site_id
 _symmetry_equiv_pos_as_xyz
 1  'x, y, z'
loop_
 _atom_site_type_symbol
 _atom_site_label
 _atom_site_symmetry_multiplicity
 _atom_site_fract_x
 _atom_site_fract_y
 _atom_site_fract_z
 _atom_site_fract_occupancy
 Cd  Cd1  1  0.00000  0.00000  0.00000  1
 Hg  Hg1  1  0.75000  0.25000  0.50000  1
 Hg  Hg2  1  0.25000  0.75000  0.50000  1
 Hg  Hg3  1  0.50000  0.50000  -0.00000  1
