CIF file written using JARVIS-Tools package.
data_SmSiOs2C
_symmetry_space_group_name_H-M  'Cmcm'
_cell_length_a       5.91656
_cell_length_b       5.91656
_cell_length_c       7.17606
_cell_angle_alpha    90
_cell_angle_beta     90
_cell_angle_gamma    141.142

_symmetry_Int_Tables_number  63
_chemical_formula_structural  SmSiOs2C
_chemical_formula_sum  Sm2Si2Os4C2
_cell_volume  157.6028702068073
_cell_formula_units_Z  2
loop_
  _symmetry_equiv_pos_site_id
 _symmetry_equiv_pos_as_xyz
 1  'x, y, z'
loop_
 _atom_site_type_symbol
 _atom_site_label
 _atom_site_symmetry_multiplicity
 _atom_site_fract_x
 _atom_site_fract_y
 _atom_site_fract_z
 _atom_site_fract_occupancy
 C  C1  1  0.00000  0.00000  0.00000  1
 C  C2  1  0.00000  0.00000  0.50000  1
 Os  Os1  1  0.83435  0.16565  0.05829  1
 Os  Os2  1  0.16565  0.83435  0.94171  1
 Os  Os3  1  0.16565  0.83435  0.55829  1
 Os  Os4  1  0.83435  0.16565  0.44171  1
 Si  Si1  1  0.27012  0.72988  0.25000  1
 Si  Si2  1  0.72988  0.27012  0.75000  1
 Sm  Sm1  1  0.54856  0.45144  0.25000  1
 Sm  Sm2  1  0.45144  0.54856  0.75000  1
