CIF file written using JARVIS-Tools package.
data_Li7VO5F
_symmetry_space_group_name_H-M  'P1'
_cell_length_a       5.01028
_cell_length_b       5.06053
_cell_length_c       7.42697
_cell_angle_alpha    127.879
_cell_angle_beta     76.4383
_cell_angle_gamma    119.282

_symmetry_Int_Tables_number  1
_chemical_formula_structural  Li7VO5F
_chemical_formula_sum  Li7VO5F
_cell_volume  129.04834239702458
_cell_formula_units_Z  1
loop_
  _symmetry_equiv_pos_site_id
 _symmetry_equiv_pos_as_xyz
 1  'x, y, z'
loop_
 _atom_site_type_symbol
 _atom_site_label
 _atom_site_symmetry_multiplicity
 _atom_site_fract_x
 _atom_site_fract_y
 _atom_site_fract_z
 _atom_site_fract_occupancy
 F  F1  1  0.50708  0.25315  0.21229  1
 Li  Li1  1  0.21269  0.38489  0.45252  1
 Li  Li2  1  0.41669  0.57832  0.20736  1
 Li  Li3  1  0.26577  0.69487  -0.07097  1
 Li  Li4  1  0.92863  0.57643  0.20042  1
 Li  Li5  1  0.43678  0.05668  0.70652  1
 Li  Li6  1  0.95611  0.02644  0.64018  1
 Li  Li7  1  0.73133  0.32325  0.42928  1
 O  O1  1  0.16640  0.74690  0.44228  1
 O  O2  1  0.14435  0.26735  0.94148  1
 O  O3  1  0.56440  0.72632  0.72083  1
 O  O4  1  0.82971  0.87871  0.16449  1
 O  O5  1  0.89059  0.40620  0.70004  1
 V  V1  1  0.84507  0.82999  -0.09922  1
