CIF file written using JARVIS-Tools package.
data_Pr3Zn
_symmetry_space_group_name_H-M  'P6_3/mmc'
_cell_length_a       7.11498
_cell_length_b       7.11499
_cell_length_c       5.33977
_cell_angle_alpha    90
_cell_angle_beta     90
_cell_angle_gamma    120

_symmetry_Int_Tables_number  194
_chemical_formula_structural  Pr3Zn
_chemical_formula_sum  Pr6Zn2
_cell_volume  234.09986112634257
_cell_formula_units_Z  2
loop_
  _symmetry_equiv_pos_site_id
 _symmetry_equiv_pos_as_xyz
 1  'x, y, z'
loop_
 _atom_site_type_symbol
 _atom_site_label
 _atom_site_symmetry_multiplicity
 _atom_site_fract_x
 _atom_site_fract_y
 _atom_site_fract_z
 _atom_site_fract_occupancy
 Pr  Pr1  1  0.17749  0.35498  0.25000  1
 Pr  Pr2  1  0.64502  0.82251  0.25000  1
 Pr  Pr3  1  0.17749  0.82251  0.25000  1
 Pr  Pr4  1  0.82251  0.64502  0.75000  1
 Pr  Pr5  1  0.35498  0.17749  0.75000  1
 Pr  Pr6  1  0.82251  0.17749  0.75000  1
 Zn  Zn1  1  0.33333  0.66667  0.75000  1
 Zn  Zn2  1  0.66667  0.33333  0.25000  1
