CIF file written using JARVIS-Tools package.
data_KAlH4
_symmetry_space_group_name_H-M  'I4_1/a'
_cell_length_a       7.32808
_cell_length_b       7.32808
_cell_length_c       7.32808
_cell_angle_alpha    137.224
_cell_angle_beta     137.224
_cell_angle_gamma    62.094

_symmetry_Int_Tables_number  88
_chemical_formula_structural  KAlH4
_chemical_formula_sum  K2Al2H8
_cell_volume  179.3554206353378
_cell_formula_units_Z  2
loop_
  _symmetry_equiv_pos_site_id
 _symmetry_equiv_pos_as_xyz
 1  'x, y, z'
loop_
 _atom_site_type_symbol
 _atom_site_label
 _atom_site_symmetry_multiplicity
 _atom_site_fract_x
 _atom_site_fract_y
 _atom_site_fract_z
 _atom_site_fract_occupancy
 Al  Al1  1  0.87500  0.62500  0.25000  1
 Al  Al2  1  0.12500  0.37500  0.75000  1
 H  H1  1  0.18218  0.59987  0.38583  1
 H  H2  1  0.71404  0.79635  0.11417  1
 H  H3  1  0.29635  0.68218  0.08231  1
 H  H4  1  0.09987  0.21404  0.41769  1
 H  H5  1  0.81782  0.40013  0.61417  1
 H  H6  1  0.28596  0.20365  0.88583  1
 H  H7  1  0.70365  0.31782  0.91769  1
 H  H8  1  0.90013  0.78596  0.58231  1
 K  K1  1  0.37500  0.12500  0.25000  1
 K  K2  1  0.62500  0.87500  0.75000  1
