CIF file written using JARVIS-Tools package.
data_Nb2Pd3Se8
_symmetry_space_group_name_H-M  'Pbam'
_cell_length_a       3.60699
_cell_length_b       10.7703
_cell_length_c       15.3305
_cell_angle_alpha    90
_cell_angle_beta     90
_cell_angle_gamma    90

_symmetry_Int_Tables_number  55
_chemical_formula_structural  Nb2Pd3Se8
_chemical_formula_sum  Nb4Pd6Se6
_cell_volume  595.5619943957801
_cell_formula_units_Z  2
loop_
  _symmetry_equiv_pos_site_id
 _symmetry_equiv_pos_as_xyz
 1  'x, y, z'
loop_
 _atom_site_type_symbol
 _atom_site_label
 _atom_site_symmetry_multiplicity
 _atom_site_fract_x
 _atom_site_fract_y
 _atom_site_fract_z
 _atom_site_fract_occupancy
 Nb  Nb1  1  0.50000  0.78629  0.88361  1
 Nb  Nb2  1  0.50000  0.21371  0.11639  1
 Nb  Nb3  1  0.50000  0.28629  0.61639  1
 Nb  Nb4  1  0.50000  0.71371  0.38361  1
 Pd  Pd1  1  0.00000  0.62121  0.78363  1
 Pd  Pd2  1  0.00000  0.50000  0.50000  1
 Pd  Pd3  1  0.00000  0.00000  0.00000  1
 Pd  Pd4  1  0.00000  0.37879  0.21637  1
 Pd  Pd5  1  0.00000  0.87879  0.28363  1
 Pd  Pd6  1  0.00000  0.12121  0.71637  1
 Se  Se1  1  0.00000  0.04330  0.15732  1
 Se  Se2  1  0.00000  0.76878  0.00966  1
 Se  Se3  1  0.00000  0.23122  0.99034  1
 Se  Se4  1  0.50000  0.04479  0.61629  1
 Se  Se5  1  0.00000  0.73122  0.50966  1
 Se  Se6  1  0.00000  0.95670  0.84268  1
 Se  Se7  1  0.00000  0.26878  0.49034  1
 Se  Se8  1  0.50000  0.54479  0.88371  1
 Se  Se9  1  0.50000  0.24863  0.28353  1
 Se  Se10  1  0.50000  0.25137  0.78353  1
 Se  Se11  1  0.50000  0.74863  0.21647  1
 Se  Se12  1  0.00000  0.45670  0.65732  1
 Se  Se13  1  0.50000  0.45521  0.11629  1
 Se  Se14  1  0.50000  0.75137  0.71647  1
 Se  Se15  1  0.00000  0.54330  0.34268  1
 Se  Se16  1  0.50000  0.95521  0.38371  1
