CIF file written using JARVIS-Tools package.
data_MnH4Br2O2
_symmetry_space_group_name_H-M  'C2/m'
_cell_length_a       3.88103
_cell_length_b       5.83806
_cell_length_c       5.83956
_cell_angle_alpha    97.5079
_cell_angle_beta     95.2927
_cell_angle_gamma    95.277

_symmetry_Int_Tables_number  12
_chemical_formula_structural  MnH4Br2O2
_chemical_formula_sum  MnH4Br2O2
_cell_volume  129.88999561624854
_cell_formula_units_Z  1
loop_
  _symmetry_equiv_pos_site_id
 _symmetry_equiv_pos_as_xyz
 1  'x, y, z'
loop_
 _atom_site_type_symbol
 _atom_site_label
 _atom_site_symmetry_multiplicity
 _atom_site_fract_x
 _atom_site_fract_y
 _atom_site_fract_z
 _atom_site_fract_occupancy
 Br  Br1  1  0.44511  0.75073  0.75046  1
 Br  Br2  1  0.55490  0.24927  0.24956  1
 H  H1  1  0.84540  0.22606  0.61339  1
 H  H2  1  0.15459  0.38699  0.77432  1
 H  H3  1  0.84541  0.61301  0.22568  1
 H  H4  1  0.15460  0.77395  0.38662  1
 Mn  Mn1  1  -0.00001  -0.00001  -0.00001  1
 O  O1  1  0.00016  0.75968  0.23982  1
 O  O2  1  0.99985  0.24032  0.76018  1
