CIF file written using JARVIS-Tools package.
data_PdSe2Cl6
_symmetry_space_group_name_H-M  'C2/c'
_cell_length_a       7.08421
_cell_length_b       8.31894
_cell_length_c       9.26849
_cell_angle_alpha    116.665
_cell_angle_beta     99.2595
_cell_angle_gamma    90

_symmetry_Int_Tables_number  15
_chemical_formula_structural  PdSe2Cl6
_chemical_formula_sum  Pd2Se4Cl2
_cell_volume  480.149842710265
_cell_formula_units_Z  2
loop_
  _symmetry_equiv_pos_site_id
 _symmetry_equiv_pos_as_xyz
 1  'x, y, z'
loop_
 _atom_site_type_symbol
 _atom_site_label
 _atom_site_symmetry_multiplicity
 _atom_site_fract_x
 _atom_site_fract_y
 _atom_site_fract_z
 _atom_site_fract_occupancy
 Cl  Cl1  1  0.05390  0.91160  0.16457  1
 Cl  Cl2  1  0.51472  0.66609  0.21503  1
 Cl  Cl3  1  0.01472  0.54894  0.21503  1
 Cl  Cl4  1  0.48528  0.33391  0.78497  1
 Cl  Cl5  1  0.75450  0.62904  0.55136  1
 Cl  Cl6  1  0.74550  0.07768  0.44864  1
 Cl  Cl7  1  0.55390  0.25297  0.16457  1
 Cl  Cl8  1  0.98528  0.45106  0.78497  1
 Cl  Cl9  1  0.44610  0.74703  0.83543  1
 Cl  Cl10  1  0.25450  0.92232  0.55136  1
 Cl  Cl11  1  0.24550  0.37096  0.44864  1
 Cl  Cl12  1  0.94610  0.08840  0.83543  1
 Pd  Pd1  1  0.75000  0.82587  0.00000  1
 Pd  Pd2  1  0.25000  0.17413  -0.00000  1
 Se  Se1  1  0.94749  0.71785  0.78789  1
 Se  Se2  1  0.55251  0.92996  0.21211  1
 Se  Se3  1  0.05251  0.28215  0.21211  1
 Se  Se4  1  0.44749  0.07004  0.78789  1
