CIF file written using JARVIS-Tools package.
data_CaAu2F12
_symmetry_space_group_name_H-M  'P-4m2'
_cell_length_a       6.06571
_cell_length_b       6.06571
_cell_length_c       6.63632
_cell_angle_alpha    90
_cell_angle_beta     90
_cell_angle_gamma    90

_symmetry_Int_Tables_number  115
_chemical_formula_structural  CaAu2F12
_chemical_formula_sum  CaAu2F2
_cell_volume  244.16907361845702
_cell_formula_units_Z  1
loop_
  _symmetry_equiv_pos_site_id
 _symmetry_equiv_pos_as_xyz
 1  'x, y, z'
loop_
 _atom_site_type_symbol
 _atom_site_label
 _atom_site_symmetry_multiplicity
 _atom_site_fract_x
 _atom_site_fract_y
 _atom_site_fract_z
 _atom_site_fract_occupancy
 Au  Au1  1  0.50000  0.00000  0.23919  1
 Au  Au2  1  0.00000  0.50000  0.76081  1
 Ca  Ca1  1  0.00000  0.00000  0.00000  1
 F  F1  1  0.00000  0.50000  0.05321  1
 F  F2  1  0.50000  0.00000  0.94679  1
 F  F3  1  0.00000  0.50000  0.47164  1
 F  F4  1  0.25590  0.20759  0.22717  1
 F  F5  1  0.20759  0.74410  0.77283  1
 F  F6  1  0.79241  0.25590  0.77283  1
 F  F7  1  0.74410  0.79241  0.22717  1
 F  F8  1  0.74410  0.20759  0.22717  1
 F  F9  1  0.20759  0.25590  0.77283  1
 F  F10  1  0.79241  0.74410  0.77283  1
 F  F11  1  0.25590  0.79241  0.22717  1
 F  F12  1  0.50000  0.00000  0.52836  1
