CIF file written using JARVIS-Tools package.
data_HoMn2SiC
_symmetry_space_group_name_H-M  'Cmcm'
_cell_length_a       5.57819
_cell_length_b       5.57819
_cell_length_c       6.95255
_cell_angle_alpha    90
_cell_angle_beta     90
_cell_angle_gamma    141.415

_symmetry_Int_Tables_number  63
_chemical_formula_structural  HoMn2SiC
_chemical_formula_sum  Ho2Mn4Si2C2
_cell_volume  134.92392314365895
_cell_formula_units_Z  2
loop_
  _symmetry_equiv_pos_site_id
 _symmetry_equiv_pos_as_xyz
 1  'x, y, z'
loop_
 _atom_site_type_symbol
 _atom_site_label
 _atom_site_symmetry_multiplicity
 _atom_site_fract_x
 _atom_site_fract_y
 _atom_site_fract_z
 _atom_site_fract_occupancy
 C  C1  1  0.00000  0.00000  0.00000  1
 C  C2  1  0.00000  0.00000  0.50000  1
 Ho  Ho1  1  0.54359  0.45641  0.25000  1
 Ho  Ho2  1  0.45641  0.54359  0.75000  1
 Mn  Mn1  1  0.83162  0.16838  0.06156  1
 Mn  Mn2  1  0.16838  0.83162  0.93844  1
 Mn  Mn3  1  0.16838  0.83162  0.56156  1
 Mn  Mn4  1  0.83162  0.16838  0.43844  1
 Si  Si1  1  0.26470  0.73530  0.25000  1
 Si  Si2  1  0.73530  0.26470  0.75000  1
