CIF file written using JARVIS-Tools package.
data_NaAl2Sb
_symmetry_space_group_name_H-M  'P6_3/mmc'
_cell_length_a       5.21548
_cell_length_b       5.21548
_cell_length_c       8.56673
_cell_angle_alpha    90
_cell_angle_beta     90
_cell_angle_gamma    120.006

_symmetry_Int_Tables_number  194
_chemical_formula_structural  NaAl2Sb
_chemical_formula_sum  Na2Al4Sb2
_cell_volume  201.79291691803348
_cell_formula_units_Z  2
loop_
  _symmetry_equiv_pos_site_id
 _symmetry_equiv_pos_as_xyz
 1  'x, y, z'
loop_
 _atom_site_type_symbol
 _atom_site_label
 _atom_site_symmetry_multiplicity
 _atom_site_fract_x
 _atom_site_fract_y
 _atom_site_fract_z
 _atom_site_fract_occupancy
 Al  Al1  1  0.66668  0.33332  0.59311  1
 Al  Al2  1  0.33332  0.66668  0.40689  1
 Al  Al3  1  0.33332  0.66668  0.09311  1
 Al  Al4  1  0.66668  0.33332  0.90689  1
 Na  Na1  1  0.00000  0.00000  0.50000  1
 Na  Na2  1  0.00000  0.00000  0.00000  1
 Sb  Sb1  1  0.66665  0.33335  0.25000  1
 Sb  Sb2  1  0.33335  0.66665  0.75000  1
