CIF file written using JARVIS-Tools package.
data_KPO3
_symmetry_space_group_name_H-M  'C2/m'
_cell_length_a       7.52737
_cell_length_b       7.52738
_cell_length_c       4.62138
_cell_angle_alpha    69.6251
_cell_angle_beta     69.6251
_cell_angle_gamma    44.2154

_symmetry_Int_Tables_number  12
_chemical_formula_structural  KPO3
_chemical_formula_sum  K2P2O6
_cell_volume  169.22139672692649
_cell_formula_units_Z  2
loop_
  _symmetry_equiv_pos_site_id
 _symmetry_equiv_pos_as_xyz
 1  'x, y, z'
loop_
 _atom_site_type_symbol
 _atom_site_label
 _atom_site_symmetry_multiplicity
 _atom_site_fract_x
 _atom_site_fract_y
 _atom_site_fract_z
 _atom_site_fract_occupancy
 K  K1  1  0.88848  0.88848  0.35199  1
 K  K2  1  0.11152  0.11152  0.64801  1
 O  O1  1  0.64504  0.18558  0.84062  1
 O  O2  1  0.81442  0.35496  0.15938  1
 O  O3  1  0.35496  0.81442  0.15938  1
 O  O4  1  0.18558  0.64504  0.84062  1
 O  O5  1  0.30951  0.30951  0.58228  1
 O  O6  1  0.69049  0.69049  0.41772  1
 P  P1  1  0.37861  0.37861  0.76286  1
 P  P2  1  0.62139  0.62139  0.23714  1
