CIF file written using JARVIS-Tools package.
data_CaNiGeH
_symmetry_space_group_name_H-M  'P4/nmm'
_cell_length_a       3.98415
_cell_length_b       3.98415
_cell_length_c       7.74831
_cell_angle_alpha    90
_cell_angle_beta     90
_cell_angle_gamma    90

_symmetry_Int_Tables_number  129
_chemical_formula_structural  CaNiGeH
_chemical_formula_sum  Ca2Ni2Ge2H2
_cell_volume  122.99215460375203
_cell_formula_units_Z  2
loop_
  _symmetry_equiv_pos_site_id
 _symmetry_equiv_pos_as_xyz
 1  'x, y, z'
loop_
 _atom_site_type_symbol
 _atom_site_label
 _atom_site_symmetry_multiplicity
 _atom_site_fract_x
 _atom_site_fract_y
 _atom_site_fract_z
 _atom_site_fract_occupancy
 Ca  Ca1  1  0.75000  0.75000  0.84900  1
 Ca  Ca2  1  0.25000  0.25000  0.15100  1
 Ge  Ge1  1  0.75000  0.75000  0.33828  1
 Ge  Ge2  1  0.25000  0.25000  0.66172  1
 H  H1  1  0.75000  0.25000  0.00000  1
 H  H2  1  0.25000  0.75000  0.00000  1
 Ni  Ni1  1  0.75000  0.25000  0.50000  1
 Ni  Ni2  1  0.25000  0.75000  0.50000  1
