CIF file written using JARVIS-Tools package.
data_Hg2IO
_symmetry_space_group_name_H-M  'C2/c'
_cell_length_a       6.71475
_cell_length_b       7.099
_cell_length_c       9.69303
_cell_angle_alpha    111.481
_cell_angle_beta     100.625
_cell_angle_gamma    90

_symmetry_Int_Tables_number  15
_chemical_formula_structural  Hg2IO
_chemical_formula_sum  Hg8I4O4
_cell_volume  421.42863398503073
_cell_formula_units_Z  4
loop_
  _symmetry_equiv_pos_site_id
 _symmetry_equiv_pos_as_xyz
 1  'x, y, z'
loop_
 _atom_site_type_symbol
 _atom_site_label
 _atom_site_symmetry_multiplicity
 _atom_site_fract_x
 _atom_site_fract_y
 _atom_site_fract_z
 _atom_site_fract_occupancy
 Hg  Hg1  1  0.22288  0.08860  0.85300  1
 Hg  Hg2  1  0.27712  0.23561  0.14700  1
 Hg  Hg3  1  0.77712  0.91140  0.14700  1
 Hg  Hg4  1  0.72288  0.76439  0.85300  1
 Hg  Hg5  1  0.22814  0.14759  0.49509  1
 Hg  Hg6  1  0.27186  0.65251  0.50491  1
 Hg  Hg7  1  0.77186  0.85241  0.50491  1
 Hg  Hg8  1  0.72814  0.34749  0.49509  1
 I  I1  1  0.31437  0.78082  0.22239  1
 I  I2  1  0.18563  0.55843  0.77761  1
 I  I3  1  0.68563  0.21918  0.77761  1
 I  I4  1  0.81437  0.44157  0.22239  1
 O  O1  1  0.16259  0.94793  0.60662  1
 O  O2  1  0.33741  0.34131  0.39338  1
 O  O3  1  0.83741  0.05207  0.39338  1
 O  O4  1  0.66259  0.65869  0.60662  1
