CIF file written using JARVIS-Tools package.
data_CdGa2O4
_symmetry_space_group_name_H-M  'Pnma'
_cell_length_a       3.0017
_cell_length_b       9.22801
_cell_length_c       10.7125
_cell_angle_alpha    90
_cell_angle_beta     90
_cell_angle_gamma    90

_symmetry_Int_Tables_number  62
_chemical_formula_structural  CdGa2O4
_chemical_formula_sum  Cd4Ga8O6
_cell_volume  296.73449341233396
_cell_formula_units_Z  4
loop_
  _symmetry_equiv_pos_site_id
 _symmetry_equiv_pos_as_xyz
 1  'x, y, z'
loop_
 _atom_site_type_symbol
 _atom_site_label
 _atom_site_symmetry_multiplicity
 _atom_site_fract_x
 _atom_site_fract_y
 _atom_site_fract_z
 _atom_site_fract_occupancy
 Cd  Cd1  1  0.25000  0.75706  0.34675  1
 Cd  Cd2  1  0.75000  0.74294  0.84675  1
 Cd  Cd3  1  0.25000  0.25706  0.15325  1
 Cd  Cd4  1  0.75000  0.24294  0.65325  1
 Ga  Ga1  1  0.75000  0.58353  0.10523  1
 Ga  Ga2  1  0.25000  0.91647  0.60523  1
 Ga  Ga3  1  0.75000  0.56463  0.61319  1
 Ga  Ga4  1  0.25000  0.93537  0.11319  1
 Ga  Ga5  1  0.25000  0.41647  0.89477  1
 Ga  Ga6  1  0.75000  0.06463  0.88681  1
 Ga  Ga7  1  0.75000  0.08353  0.39477  1
 Ga  Ga8  1  0.25000  0.43537  0.38681  1
 O  O1  1  0.25000  0.61573  0.97667  1
 O  O2  1  0.75000  0.97030  0.71678  1
 O  O3  1  0.75000  0.08171  0.07056  1
 O  O4  1  0.75000  0.88427  0.47667  1
 O  O5  1  0.75000  0.79591  0.15932  1
 O  O6  1  0.25000  0.70409  0.65932  1
 O  O7  1  0.25000  0.91829  0.92944  1
 O  O8  1  0.25000  0.11573  0.52333  1
 O  O9  1  0.25000  0.41829  0.57056  1
 O  O10  1  0.75000  0.38427  0.02333  1
 O  O11  1  0.75000  0.29591  0.34068  1
 O  O12  1  0.25000  0.20409  0.84068  1
 O  O13  1  0.75000  0.58171  0.42944  1
 O  O14  1  0.75000  0.47030  0.78322  1
 O  O15  1  0.25000  0.52970  0.21678  1
 O  O16  1  0.25000  0.02970  0.28322  1
