CIF file written using JARVIS-Tools package.
data_SmBeF4
_symmetry_space_group_name_H-M  'Pnma'
_cell_length_a       5.27245
_cell_length_b       6.77466
_cell_length_c       8.24636
_cell_angle_alpha    90
_cell_angle_beta     90
_cell_angle_gamma    90

_symmetry_Int_Tables_number  62
_chemical_formula_structural  SmBeF4
_chemical_formula_sum  Sm4Be4F6
_cell_volume  294.5521857148627
_cell_formula_units_Z  4
loop_
  _symmetry_equiv_pos_site_id
 _symmetry_equiv_pos_as_xyz
 1  'x, y, z'
loop_
 _atom_site_type_symbol
 _atom_site_label
 _atom_site_symmetry_multiplicity
 _atom_site_fract_x
 _atom_site_fract_y
 _atom_site_fract_z
 _atom_site_fract_occupancy
 Be  Be1  1  0.28348  0.63423  0.05058  1
 Be  Be2  1  0.78348  0.36577  0.94942  1
 Be  Be3  1  0.78348  0.13423  0.44942  1
 Be  Be4  1  0.28348  0.86577  0.55058  1
 F  F1  1  0.78342  0.41038  0.13188  1
 F  F2  1  0.78342  0.08962  0.63188  1
 F  F3  1  0.28342  0.91038  0.36812  1
 F  F4  1  0.52051  0.76971  0.09664  1
 F  F5  1  0.02051  0.23029  0.90336  1
 F  F6  1  0.52051  0.73029  0.59664  1
 F  F7  1  0.02051  0.26971  0.40336  1
 F  F8  1  0.54644  0.23029  0.90333  1
 F  F9  1  0.04644  0.76971  0.09667  1
 F  F10  1  0.28342  0.44243  0.14932  1
 F  F11  1  0.04644  0.73029  0.59667  1
 F  F12  1  0.28342  0.58962  0.86812  1
 F  F13  1  0.78342  0.55757  0.85068  1
 F  F14  1  0.28342  0.05757  0.64932  1
 F  F15  1  0.78342  0.94243  0.35068  1
 F  F16  1  0.54644  0.26971  0.40333  1
 Sm  Sm1  1  0.28354  0.39965  0.63678  1
 Sm  Sm2  1  0.78354  0.60035  0.36322  1
 Sm  Sm3  1  0.28354  0.10035  0.13678  1
 Sm  Sm4  1  0.78354  0.89965  0.86322  1
