CIF file written using JARVIS-Tools package.
data_DyZnPd
_symmetry_space_group_name_H-M  'P-62m'
_cell_length_a       3.81841
_cell_length_b       7.30323
_cell_length_c       7.30295
_cell_angle_alpha    120.001
_cell_angle_beta     90
_cell_angle_gamma    90

_symmetry_Int_Tables_number  189
_chemical_formula_structural  DyZnPd
_chemical_formula_sum  Dy3Zn3Pd3
_cell_volume  176.3680693616779
_cell_formula_units_Z  3
loop_
  _symmetry_equiv_pos_site_id
 _symmetry_equiv_pos_as_xyz
 1  'x, y, z'
loop_
 _atom_site_type_symbol
 _atom_site_label
 _atom_site_symmetry_multiplicity
 _atom_site_fract_x
 _atom_site_fract_y
 _atom_site_fract_z
 _atom_site_fract_occupancy
 Dy  Dy1  1  0.50000  0.59654  0.00000  1
 Dy  Dy2  1  0.50000  0.40343  0.40344  1
 Dy  Dy3  1  0.50000  0.99999  0.59656  1
 Pd  Pd1  1  0.00000  0.33332  0.66667  1
 Pd  Pd2  1  0.00000  0.66665  0.33333  1
 Pd  Pd3  1  0.50000  1.00000  -0.00000  1
 Zn  Zn1  1  0.00000  0.25430  -0.00000  1
 Zn  Zn2  1  0.00000  0.74568  0.74568  1
 Zn  Zn3  1  0.00000  1.00000  0.25432  1
