CIF file written using JARVIS-Tools package.
data_Ba2Na2O3
_symmetry_space_group_name_H-M  'P2_1/c'
_cell_length_a       5.75893
_cell_length_b       5.61465
_cell_length_c       8.50141
_cell_angle_alpha    90
_cell_angle_beta     105.535
_cell_angle_gamma    90

_symmetry_Int_Tables_number  14
_chemical_formula_structural  Ba2Na2O3
_chemical_formula_sum  Ba4Na4O6
_cell_volume  264.84581857657145
_cell_formula_units_Z  2
loop_
  _symmetry_equiv_pos_site_id
 _symmetry_equiv_pos_as_xyz
 1  'x, y, z'
loop_
 _atom_site_type_symbol
 _atom_site_label
 _atom_site_symmetry_multiplicity
 _atom_site_fract_x
 _atom_site_fract_y
 _atom_site_fract_z
 _atom_site_fract_occupancy
 Ba  Ba1  1  0.69276  0.46992  0.33329  1
 Ba  Ba2  1  0.80724  0.96992  0.66671  1
 Ba  Ba3  1  0.19276  0.03008  0.33329  1
 Ba  Ba4  1  0.30724  0.53008  0.66671  1
 Na  Na1  1  0.18400  0.63936  0.07234  1
 Na  Na2  1  0.68400  0.86064  0.07234  1
 Na  Na3  1  0.31600  0.13936  0.92766  1
 Na  Na4  1  0.81600  0.36064  0.92766  1
 O  O1  1  0.50000  0.50000  0.00000  1
 O  O2  1  0.00000  0.00000  0.00000  1
 O  O3  1  0.66720  -0.02255  0.33275  1
 O  O4  1  0.16720  0.52255  0.33275  1
 O  O5  1  0.83280  0.47745  0.66725  1
 O  O6  1  0.33280  0.02255  0.66725  1
