CIF file written using JARVIS-Tools package.
data_FeHO2
_symmetry_space_group_name_H-M  'Cmcm'
_cell_length_a       2.45532
_cell_length_b       3.84756
_cell_length_c       7.56599
_cell_angle_alpha    90
_cell_angle_beta     99.3381
_cell_angle_gamma    90

_symmetry_Int_Tables_number  63
_chemical_formula_structural  FeHO2
_chemical_formula_sum  Fe2H2O4
_cell_volume  70.52869546262245
_cell_formula_units_Z  2
loop_
  _symmetry_equiv_pos_site_id
 _symmetry_equiv_pos_as_xyz
 1  'x, y, z'
loop_
 _atom_site_type_symbol
 _atom_site_label
 _atom_site_symmetry_multiplicity
 _atom_site_fract_x
 _atom_site_fract_y
 _atom_site_fract_z
 _atom_site_fract_occupancy
 Fe  Fe1  1  0.68965  0.81355  0.37930  1
 Fe  Fe2  1  0.31035  0.31354  0.62070  1
 H  H1  1  0.55779  0.81341  0.11558  1
 H  H2  1  0.44221  0.31341  0.88442  1
 O  O1  1  0.71543  0.31356  0.43087  1
 O  O2  1  0.28457  0.81356  0.56913  1
 O  O3  1  0.08337  0.81349  0.16675  1
 O  O4  1  0.91663  0.31349  0.83325  1
