CIF file written using JARVIS-Tools package.
data_HfZrS6
_symmetry_space_group_name_H-M  'Pm'
_cell_length_a       3.62502
_cell_length_b       5.14606
_cell_length_c       9.03397
_cell_angle_alpha    82.9002
_cell_angle_beta     90
_cell_angle_gamma    90

_symmetry_Int_Tables_number  6
_chemical_formula_structural  HfZrS6
_chemical_formula_sum  HfZrS6
_cell_volume  167.23256673992594
_cell_formula_units_Z  1
loop_
  _symmetry_equiv_pos_site_id
 _symmetry_equiv_pos_as_xyz
 1  'x, y, z'
loop_
 _atom_site_type_symbol
 _atom_site_label
 _atom_site_symmetry_multiplicity
 _atom_site_fract_x
 _atom_site_fract_y
 _atom_site_fract_z
 _atom_site_fract_occupancy
 Hf  Hf1  1  0.50000  0.71649  0.65512  1
 S  S1  1  0.50000  0.52761  0.17107  1
 S  S2  1  0.00000  0.47204  0.82685  1
 S  S3  1  0.50000  0.12156  0.16731  1
 S  S4  1  0.00000  0.88002  0.83052  1
 S  S5  1  0.50000  0.23747  0.55589  1
 S  S6  1  0.00000  0.76146  0.44791  1
 Zr  Zr1  1  0.00000  0.28335  0.34532  1
