CIF file written using JARVIS-Tools package.
data_NiH20C8N10
_symmetry_space_group_name_H-M  'P2_1/c'
_cell_length_a       6.30825
_cell_length_b       8.96233
_cell_length_c       11.0416
_cell_angle_alpha    90
_cell_angle_beta     98.4169
_cell_angle_gamma    90

_symmetry_Int_Tables_number  14
_chemical_formula_structural  NiH20C8N10
_chemical_formula_sum  Ni2H40C6N20
_cell_volume  617.5288582187002
_cell_formula_units_Z  2
loop_
  _symmetry_equiv_pos_site_id
 _symmetry_equiv_pos_as_xyz
 1  'x, y, z'
loop_
 _atom_site_type_symbol
 _atom_site_label
 _atom_site_symmetry_multiplicity
 _atom_site_fract_x
 _atom_site_fract_y
 _atom_site_fract_z
 _atom_site_fract_occupancy
 C  C1  1  0.23584  0.77168  0.86993  1
 C  C2  1  0.04184  0.38530  0.24848  1
 C  C3  1  0.93594  0.82450  0.46515  1
 C  C4  1  0.93594  0.67550  0.96515  1
 C  C5  1  0.23584  0.72832  0.36993  1
 C  C6  1  0.53134  0.10952  0.24588  1
 C  C7  1  0.76416  0.27168  0.63007  1
 C  C8  1  0.95816  0.88530  0.25152  1
 C  C9  1  0.06406  0.32450  0.03485  1
 C  C10  1  0.53134  0.39048  0.74588  1
 C  C11  1  0.04184  0.11470  0.74848  1
 C  C12  1  0.95816  0.61470  0.75152  1
 C  C13  1  0.46866  0.89048  0.75412  1
 C  C14  1  0.06406  0.17550  0.53485  1
 C  C15  1  0.76416  0.22832  0.13007  1
 C  C16  1  0.46866  0.60952  0.25412  1
 H  H1  1  0.38742  0.91862  0.19721  1
 H  H2  1  0.51345  0.18413  0.42019  1
 H  H3  1  0.38742  0.58138  0.69721  1
 H  H4  1  0.12842  0.48674  0.23149  1
 H  H5  1  0.87158  0.98674  0.26851  1
 H  H6  1  0.02882  0.84003  0.55649  1
 H  H7  1  0.65053  0.96739  0.62558  1
 H  H8  1  0.15032  0.21669  0.03767  1
 H  H9  1  0.84968  0.71669  0.46233  1
 H  H10  1  0.18345  0.41387  0.05035  1
 H  H11  1  0.48655  0.68413  0.07981  1
 H  H12  1  0.15832  0.19838  0.79031  1
 H  H13  1  0.80447  0.33940  0.46433  1
 H  H14  1  0.80447  0.16060  0.96433  1
 H  H15  1  0.81655  0.91387  0.44965  1
 H  H16  1  0.84168  0.69838  0.70969  1
 H  H17  1  0.93155  0.41248  0.31252  1
 H  H18  1  0.19553  0.66060  0.53567  1
 H  H19  1  0.12842  0.01326  0.73149  1
 H  H20  1  0.06845  0.91248  0.18748  1
 H  H21  1  0.15832  0.30162  0.29031  1
 H  H22  1  0.84968  0.78331  0.96233  1
 H  H23  1  0.15032  0.28331  0.53767  1
 H  H24  1  0.65053  0.53261  0.12558  1
 H  H25  1  0.02882  0.65997  0.05649  1
 H  H26  1  0.97118  0.34003  0.94351  1
 H  H27  1  0.18345  0.08613  0.55035  1
 H  H28  1  0.97118  0.15997  0.44351  1
 H  H29  1  0.93155  0.08752  0.81252  1
 H  H30  1  0.48655  0.81587  0.57981  1
 H  H31  1  0.61258  0.08138  0.80279  1
 H  H32  1  0.19553  0.83940  0.03567  1
 H  H33  1  0.84168  0.80162  0.20969  1
 H  H34  1  0.51345  0.31587  0.92019  1
 H  H35  1  0.87158  0.51326  0.76851  1
 H  H36  1  0.34947  0.46739  0.87442  1
 H  H37  1  0.34947  0.03261  0.37442  1
 H  H38  1  0.81655  0.58613  0.94965  1
 H  H39  1  0.61258  0.41862  0.30279  1
 H  H40  1  0.06845  0.58752  0.68748  1
 N  N1  1  0.07395  0.66566  0.86928  1
 N  N2  1  0.29043  0.64544  0.46971  1
 N  N3  1  0.29043  0.85456  0.96971  1
 N  N4  1  0.54467  0.98930  0.83825  1
 N  N5  1  0.52095  0.59566  0.13740  1
 N  N6  1  0.67035  0.27823  0.73230  1
 N  N7  1  0.52095  0.90434  0.63740  1
 N  N8  1  0.54467  0.51070  0.33825  1
 N  N9  1  0.47905  0.40434  0.86260  1
 N  N10  1  0.45533  0.01070  0.16175  1
 N  N11  1  0.92605  0.33434  0.13072  1
 N  N12  1  0.70957  0.35456  0.53029  1
 N  N13  1  0.32965  0.72177  0.26770  1
 N  N14  1  0.67035  0.22177  0.23230  1
 N  N15  1  0.07395  0.83434  0.36928  1
 N  N16  1  0.45533  0.48930  0.66175  1
 N  N17  1  0.32965  0.77823  0.76770  1
 N  N18  1  0.92605  0.16566  0.63072  1
 N  N19  1  0.47905  0.09566  0.36260  1
 N  N20  1  0.70957  0.14544  0.03029  1
 Ni  Ni1  1  0.50000  0.00000  0.00000  1
 Ni  Ni2  1  0.50000  0.50000  0.50000  1
