CIF file written using JARVIS-Tools package.
data_Na3Ca
_symmetry_space_group_name_H-M  'P6_3/mmc'
_cell_length_a       7.51684
_cell_length_b       7.51684
_cell_length_c       6.07507
_cell_angle_alpha    90
_cell_angle_beta     90
_cell_angle_gamma    120

_symmetry_Int_Tables_number  194
_chemical_formula_structural  Na3Ca
_chemical_formula_sum  Na6Ca2
_cell_volume  297.270871731259
_cell_formula_units_Z  2
loop_
  _symmetry_equiv_pos_site_id
 _symmetry_equiv_pos_as_xyz
 1  'x, y, z'
loop_
 _atom_site_type_symbol
 _atom_site_label
 _atom_site_symmetry_multiplicity
 _atom_site_fract_x
 _atom_site_fract_y
 _atom_site_fract_z
 _atom_site_fract_occupancy
 Ca  Ca1  1  0.33333  0.66667  0.75000  1
 Ca  Ca2  1  0.66667  0.33333  0.25000  1
 Na  Na1  1  0.16431  0.32863  0.25000  1
 Na  Na2  1  0.67137  0.83569  0.25000  1
 Na  Na3  1  0.16431  0.83569  0.25000  1
 Na  Na4  1  0.83569  0.67137  0.75000  1
 Na  Na5  1  0.32863  0.16431  0.75000  1
 Na  Na6  1  0.83569  0.16431  0.75000  1
