CIF file written using JARVIS-Tools package.
data_Na2Te4O9
_symmetry_space_group_name_H-M  'P-1'
_cell_length_a       6.96165
_cell_length_b       7.3523
_cell_length_c       10.5414
_cell_angle_alpha    68.3832
_cell_angle_beta     89.8308
_cell_angle_gamma    68.4068

_symmetry_Int_Tables_number  2
_chemical_formula_structural  Na2Te4O9
_chemical_formula_sum  Na4Te8O8
_cell_volume  460.88005892716797
_cell_formula_units_Z  2
loop_
  _symmetry_equiv_pos_site_id
 _symmetry_equiv_pos_as_xyz
 1  'x, y, z'
loop_
 _atom_site_type_symbol
 _atom_site_label
 _atom_site_symmetry_multiplicity
 _atom_site_fract_x
 _atom_site_fract_y
 _atom_site_fract_z
 _atom_site_fract_occupancy
 Na  Na1  1  0.47740  0.77360  0.48936  1
 Na  Na2  1  0.52260  0.22640  0.51064  1
 Na  Na3  1  0.97599  0.81855  0.63569  1
 Na  Na4  1  0.02401  0.18145  0.36431  1
 O  O1  1  0.96014  0.85708  0.13270  1
 O  O2  1  0.95574  0.88082  0.40113  1
 O  O3  1  0.04426  0.11918  0.59887  1
 O  O4  1  0.30176  0.12745  0.09465  1
 O  O5  1  0.69824  0.87255  0.90535  1
 O  O6  1  0.66231  0.33012  0.66572  1
 O  O7  1  0.33769  0.66988  0.33428  1
 O  O8  1  0.94253  0.49665  0.11996  1
 O  O9  1  0.05747  0.50335  0.88004  1
 O  O10  1  0.36484  0.14578  0.35519  1
 O  O11  1  0.63516  0.85422  0.64481  1
 O  O12  1  0.33375  0.51198  0.10388  1
 O  O13  1  0.66591  0.34096  0.29869  1
 O  O14  1  0.66625  0.48802  0.89612  1
 O  O15  1  0.71103  0.69384  0.32999  1
 O  O16  1  0.28897  0.30616  0.67001  1
 O  O17  1  0.03986  0.14292  0.86730  1
 O  O18  1  0.33409  0.65904  0.70131  1
 Te  Te1  1  0.99588  0.27523  0.01563  1
 Te  Te2  1  0.97182  0.32564  0.67081  1
 Te  Te3  1  0.02818  0.67436  0.32919  1
 Te  Te4  1  0.49178  0.20364  0.19799  1
 Te  Te5  1  0.50822  0.79636  0.80201  1
 Te  Te6  1  0.53925  0.64544  0.20817  1
 Te  Te7  1  0.46075  0.35456  0.79183  1
 Te  Te8  1  0.00412  0.72477  0.98437  1
