CIF file written using JARVIS-Tools package.
data_SbS7IF6
_symmetry_space_group_name_H-M  'P2_12_12_1'
_cell_length_a       8.82991
_cell_length_b       11.5804
_cell_length_c       12.5422
_cell_angle_alpha    90
_cell_angle_beta     90
_cell_angle_gamma    90

_symmetry_Int_Tables_number  19
_chemical_formula_structural  SbS7IF6
_chemical_formula_sum  Sb4S28I4F24
_cell_volume  1282.4909012631497
_cell_formula_units_Z  4
loop_
  _symmetry_equiv_pos_site_id
 _symmetry_equiv_pos_as_xyz
 1  'x, y, z'
loop_
 _atom_site_type_symbol
 _atom_site_label
 _atom_site_symmetry_multiplicity
 _atom_site_fract_x
 _atom_site_fract_y
 _atom_site_fract_z
 _atom_site_fract_occupancy
 F  F1  1  0.91601  -0.00152  0.73100  1
 F  F2  1  0.12624  0.85163  0.81226  1
 F  F3  1  0.46756  0.53427  0.06823  1
 F  F4  1  0.96756  0.46573  0.43177  1
 F  F5  1  0.62624  0.14837  0.68774  1
 F  F6  1  0.44803  0.18212  0.51090  1
 F  F7  1  0.03244  0.03427  0.93177  1
 F  F8  1  0.41601  0.00152  0.76900  1
 F  F9  1  0.37376  0.35163  0.18774  1
 F  F10  1  0.55197  0.31788  0.01090  1
 F  F11  1  0.08399  0.50152  0.23100  1
 F  F12  1  0.66171  0.27760  0.20914  1
 F  F13  1  0.73962  0.96186  0.90505  1
 F  F14  1  0.26038  0.53814  0.40505  1
 F  F15  1  0.33829  0.22240  0.70914  1
 F  F16  1  0.58399  0.49848  0.26900  1
 F  F17  1  0.05197  0.68212  0.48910  1
 F  F18  1  0.83829  0.77760  0.79086  1
 F  F19  1  0.16171  0.72240  0.29086  1
 F  F20  1  0.23962  0.03814  0.59495  1
 F  F21  1  0.53244  0.96573  0.56823  1
 F  F22  1  0.76038  0.46186  0.09495  1
 F  F23  1  0.87376  0.64837  0.31226  1
 F  F24  1  0.94803  0.81788  0.98910  1
 I  I1  1  0.19224  0.21921  0.38211  1
 I  I2  1  0.30776  0.71921  0.61789  1
 I  I3  1  0.80776  0.28079  0.88211  1
 I  I4  1  0.69224  0.78079  0.11789  1
 S  S1  1  0.94535  0.10705  0.17305  1
 S  S2  1  0.53136  0.74978  0.71833  1
 S  S3  1  0.40306  0.86772  0.96329  1
 S  S4  1  0.71899  0.69102  0.57619  1
 S  S5  1  0.90306  0.13228  0.53671  1
 S  S6  1  0.96864  0.24978  0.28167  1
 S  S7  1  0.44333  0.05802  0.99723  1
 S  S8  1  0.84613  0.91909  0.36361  1
 S  S9  1  0.34613  0.08091  0.13639  1
 S  S10  1  0.52172  0.03530  0.25389  1
 S  S11  1  0.03136  0.25022  0.78167  1
 S  S12  1  0.44535  0.89295  0.32695  1
 S  S13  1  0.55667  0.44198  0.49723  1
 S  S14  1  0.46864  0.75022  0.21833  1
 S  S15  1  0.05667  0.55802  0.00277  1
 S  S16  1  0.94333  0.94198  0.50277  1
 S  S17  1  0.15387  0.58091  0.86361  1
 S  S18  1  0.47828  0.46470  0.75389  1
 S  S19  1  0.78101  0.19102  0.42381  1
 S  S20  1  0.65387  0.41909  0.63639  1
 S  S21  1  0.21899  0.30898  0.92381  1
 S  S22  1  0.05465  0.39295  0.67305  1
 S  S23  1  0.02172  0.96470  0.24611  1
 S  S24  1  0.59694  0.63228  0.46329  1
 S  S25  1  0.97828  0.53530  0.74611  1
 S  S26  1  0.09694  0.36772  0.03671  1
 S  S27  1  0.28101  0.80898  0.07619  1
 S  S28  1  0.55465  0.60705  0.82695  1
 Sb  Sb1  1  0.93444  0.90872  0.85862  1
 Sb  Sb2  1  0.43444  0.09128  0.64138  1
 Sb  Sb3  1  0.56556  0.40872  0.14138  1
 Sb  Sb4  1  0.06556  0.59128  0.35862  1
