CIF file written using JARVIS-Tools package.
data_Na2CoO3
_symmetry_space_group_name_H-M  'C2/m'
_cell_length_a       4.85552
_cell_length_b       6.65512
_cell_length_c       6.65609
_cell_angle_alpha    136.815
_cell_angle_beta     90.4983
_cell_angle_gamma    90.5049

_symmetry_Int_Tables_number  12
_chemical_formula_structural  Na2CoO3
_chemical_formula_sum  Na4Co2O6
_cell_volume  147.15289629580218
_cell_formula_units_Z  2
loop_
  _symmetry_equiv_pos_site_id
 _symmetry_equiv_pos_as_xyz
 1  'x, y, z'
loop_
 _atom_site_type_symbol
 _atom_site_label
 _atom_site_symmetry_multiplicity
 _atom_site_fract_x
 _atom_site_fract_y
 _atom_site_fract_z
 _atom_site_fract_occupancy
 Co  Co1  1  0.70525  0.20046  0.70044  1
 Co  Co2  1  0.29475  0.79954  0.29956  1
 Na  Na1  1  0.75700  0.56372  0.40530  1
 Na  Na2  1  0.75698  0.90538  0.06379  1
 Na  Na3  1  0.24302  0.09462  -0.06379  1
 Na  Na4  1  0.24300  0.43628  0.59470  1
 O  O1  1  0.75622  0.11464  0.89150  1
 O  O2  1  0.75618  0.39159  0.61466  1
 O  O3  1  0.68631  0.81413  0.31412  1
 O  O4  1  0.31369  0.18587  0.68588  1
 O  O5  1  0.24382  0.60841  0.38534  1
 O  O6  1  0.24378  0.88536  0.10850  1
