CIF file written using JARVIS-Tools package.
data_NaMg7
_symmetry_space_group_name_H-M  'P-6m2'
_cell_length_a       6.50616
_cell_length_b       6.50615
_cell_length_c       5.22306
_cell_angle_alpha    90
_cell_angle_beta     90
_cell_angle_gamma    120

_symmetry_Int_Tables_number  187
_chemical_formula_structural  NaMg7
_chemical_formula_sum  NaMg7
_cell_volume  191.4714479330558
_cell_formula_units_Z  1
loop_
  _symmetry_equiv_pos_site_id
 _symmetry_equiv_pos_as_xyz
 1  'x, y, z'
loop_
 _atom_site_type_symbol
 _atom_site_label
 _atom_site_symmetry_multiplicity
 _atom_site_fract_x
 _atom_site_fract_y
 _atom_site_fract_z
 _atom_site_fract_occupancy
 Mg  Mg1  1  0.16877  0.83438  0.25000  1
 Mg  Mg2  1  0.66562  0.33123  0.25000  1
 Mg  Mg3  1  0.66562  0.83438  0.25000  1
 Mg  Mg4  1  0.33559  0.16441  0.75000  1
 Mg  Mg5  1  0.33559  0.67117  0.75000  1
 Mg  Mg6  1  0.82883  0.16441  0.75000  1
 Mg  Mg7  1  0.83333  0.66667  0.75000  1
 Na  Na1  1  0.16667  0.33333  0.25000  1
