CIF file written using JARVIS-Tools package.
data_BaAl2Si2
_symmetry_space_group_name_H-M  'I4/mmm'
_cell_length_a       4.19025
_cell_length_b       4.19026
_cell_length_c       7.22935
_cell_angle_alpha    106.847
_cell_angle_beta     106.847
_cell_angle_gamma    90.0001

_symmetry_Int_Tables_number  139
_chemical_formula_structural  BaAl2Si2
_chemical_formula_sum  BaAl2Si2
_cell_volume  115.78382089372256
_cell_formula_units_Z  1
loop_
  _symmetry_equiv_pos_site_id
 _symmetry_equiv_pos_as_xyz
 1  'x, y, z'
loop_
 _atom_site_type_symbol
 _atom_site_label
 _atom_site_symmetry_multiplicity
 _atom_site_fract_x
 _atom_site_fract_y
 _atom_site_fract_z
 _atom_site_fract_occupancy
 Al  Al1  1  0.75000  0.25000  0.50000  1
 Al  Al2  1  0.25000  0.75000  0.50000  1
 Ba  Ba1  1  0.00000  0.00000  0.00000  1
 Si  Si1  1  0.36119  0.36119  0.72237  1
 Si  Si2  1  0.63881  0.63881  0.27763  1
