CIF file written using JARVIS-Tools package.
data_MgCl2O6
_symmetry_space_group_name_H-M  'C2/m'
_cell_length_a       3.52681
_cell_length_b       7.24858
_cell_length_c       7.24858
_cell_angle_alpha    63.4575
_cell_angle_beta     92.4397
_cell_angle_gamma    92.4397

_symmetry_Int_Tables_number  12
_chemical_formula_structural  MgCl2O6
_chemical_formula_sum  MgCl2O6
_cell_volume  165.56696242033615
_cell_formula_units_Z  1
loop_
  _symmetry_equiv_pos_site_id
 _symmetry_equiv_pos_as_xyz
 1  'x, y, z'
loop_
 _atom_site_type_symbol
 _atom_site_label
 _atom_site_symmetry_multiplicity
 _atom_site_fract_x
 _atom_site_fract_y
 _atom_site_fract_z
 _atom_site_fract_occupancy
 Cl  Cl1  1  0.52482  0.13339  0.13339  1
 Cl  Cl2  1  0.47518  0.86661  0.86661  1
 Mg  Mg1  1  0.00000  0.00000  0.00000  1
 O  O1  1  0.03920  0.35424  0.35424  1
 O  O2  1  -0.03920  0.64576  0.64576  1
 O  O3  1  0.92267  0.25073  0.53986  1
 O  O4  1  0.92267  0.53986  0.25073  1
 O  O5  1  0.07733  0.74927  0.46014  1
 O  O6  1  0.07733  0.46014  0.74927  1
