CIF file written using JARVIS-Tools package.
data_Na5SbO5
_symmetry_space_group_name_H-M  'C2'
_cell_length_a       4.5411
_cell_length_b       5.82747
_cell_length_c       6.42514
_cell_angle_alpha    107.338
_cell_angle_beta     90.0019
_cell_angle_gamma    112.931

_symmetry_Int_Tables_number  5
_chemical_formula_structural  Na5SbO5
_chemical_formula_sum  Na5SbO5
_cell_volume  148.16709226901273
_cell_formula_units_Z  1
loop_
  _symmetry_equiv_pos_site_id
 _symmetry_equiv_pos_as_xyz
 1  'x, y, z'
loop_
 _atom_site_type_symbol
 _atom_site_label
 _atom_site_symmetry_multiplicity
 _atom_site_fract_x
 _atom_site_fract_y
 _atom_site_fract_z
 _atom_site_fract_occupancy
 Na  Na1  1  0.32248  0.64643  0.14616  1
 Na  Na2  1  0.29995  0.60542  0.67745  1
 Na  Na3  1  0.69470  0.39491  0.32469  1
 Na  Na4  1  0.67621  0.35389  0.85597  1
 Na  Na5  1  0.00818  0.00017  0.50107  1
 O  O1  1  0.86975  0.73222  0.15630  1
 O  O2  1  0.85546  0.70876  0.70518  1
 O  O3  1  0.14688  0.29158  0.29696  1
 O  O4  1  0.13769  0.26811  0.84584  1
 O  O5  1  0.52284  0.00017  0.00108  1
 Sb  Sb1  1  0.97228  0.00016  0.00107  1
