CIF file written using JARVIS-Tools package.
data_WO3
_symmetry_space_group_name_H-M  'Cmcm'
_cell_length_a       3.90286
_cell_length_b       7.518
_cell_length_c       7.80582
_cell_angle_alpha    90
_cell_angle_beta     89.714
_cell_angle_gamma    90

_symmetry_Int_Tables_number  63
_chemical_formula_structural  WO3
_chemical_formula_sum  W4O2
_cell_volume  229.03308006258308
_cell_formula_units_Z  4
loop_
  _symmetry_equiv_pos_site_id
 _symmetry_equiv_pos_as_xyz
 1  'x, y, z'
loop_
 _atom_site_type_symbol
 _atom_site_label
 _atom_site_symmetry_multiplicity
 _atom_site_fract_x
 _atom_site_fract_y
 _atom_site_fract_z
 _atom_site_fract_occupancy
 O  O1  1  0.00000  0.50000  0.50000  1
 O  O2  1  0.00000  0.00000  0.00000  1
 O  O3  1  0.00000  -0.00000  0.50000  1
 O  O4  1  0.00000  0.50000  0.00000  1
 O  O5  1  0.48143  0.75000  0.98890  1
 O  O6  1  0.97772  0.75000  0.24074  1
 O  O7  1  0.51856  0.25000  0.51110  1
 O  O8  1  0.48144  0.75000  0.48890  1
 O  O9  1  0.02228  0.25000  0.25926  1
 O  O10  1  0.97772  0.75000  0.74074  1
 O  O11  1  0.02228  0.25000  0.75926  1
 O  O12  1  0.51856  0.25000  0.01110  1
 W  W1  1  0.06120  0.25000  0.03058  1
 W  W2  1  0.93880  0.75000  0.46942  1
 W  W3  1  0.93880  0.75000  0.96942  1
 W  W4  1  0.06120  0.25000  0.53058  1
