CIF file written using JARVIS-Tools package.
data_La2NiO4
_symmetry_space_group_name_H-M  'Cmce'
_cell_length_a       5.33662
_cell_length_b       5.39177
_cell_length_c       7.0367
_cell_angle_alpha    90
_cell_angle_beta     112.284
_cell_angle_gamma    90

_symmetry_Int_Tables_number  64
_chemical_formula_structural  La2NiO4
_chemical_formula_sum  La4Ni2O8
_cell_volume  187.35081223041723
_cell_formula_units_Z  2
loop_
  _symmetry_equiv_pos_site_id
 _symmetry_equiv_pos_as_xyz
 1  'x, y, z'
loop_
 _atom_site_type_symbol
 _atom_site_label
 _atom_site_symmetry_multiplicity
 _atom_site_fract_x
 _atom_site_fract_y
 _atom_site_fract_z
 _atom_site_fract_occupancy
 La  La1  1  0.86253  0.49361  0.72506  1
 La  La2  1  0.13747  0.50639  0.27494  1
 La  La3  1  0.36253  0.00639  0.72506  1
 La  La4  1  0.63747  0.99361  0.27494  1
 Ni  Ni1  1  0.50000  0.50000  0.00000  1
 Ni  Ni2  1  0.00000  0.00000  0.00000  1
 O  O1  1  0.31807  0.47073  0.63615  1
 O  O2  1  0.68193  0.52928  0.36385  1
 O  O3  1  0.18193  0.97072  0.36385  1
 O  O4  1  0.81807  0.02928  0.63615  1
 O  O5  1  0.25649  0.25000  0.01297  1
 O  O6  1  0.24351  0.75000  0.98703  1
 O  O7  1  0.75648  0.25000  0.01297  1
 O  O8  1  0.74352  0.75000  0.98703  1
