CIF file written using JARVIS-Tools package.
data_K2WSe4
_symmetry_space_group_name_H-M  'Pnma'
_cell_length_a       7.14253
_cell_length_b       9.74426
_cell_length_c       12.5703
_cell_angle_alpha    90
_cell_angle_beta     90
_cell_angle_gamma    90

_symmetry_Int_Tables_number  62
_chemical_formula_structural  K2WSe4
_chemical_formula_sum  K8W4Se6
_cell_volume  874.8795108005403
_cell_formula_units_Z  4
loop_
  _symmetry_equiv_pos_site_id
 _symmetry_equiv_pos_as_xyz
 1  'x, y, z'
loop_
 _atom_site_type_symbol
 _atom_site_label
 _atom_site_symmetry_multiplicity
 _atom_site_fract_x
 _atom_site_fract_y
 _atom_site_fract_z
 _atom_site_fract_occupancy
 K  K1  1  0.75000  0.55234  0.65308  1
 K  K2  1  0.25000  0.44766  0.34692  1
 K  K3  1  0.75000  0.05234  0.84692  1
 K  K4  1  0.25000  0.94766  0.15308  1
 K  K5  1  0.75000  0.83979  0.38240  1
 K  K6  1  0.25000  0.16021  0.61760  1
 K  K7  1  0.75000  0.33979  0.11760  1
 K  K8  1  0.25000  0.66021  0.88240  1
 Se  Se1  1  0.51149  0.35967  0.86400  1
 Se  Se2  1  0.51149  0.85967  0.63600  1
 Se  Se3  1  0.01149  0.14033  0.36400  1
 Se  Se4  1  0.25000  0.77863  0.38038  1
 Se  Se5  1  0.75000  0.22137  0.61962  1
 Se  Se6  1  0.25000  0.27863  0.11962  1
 Se  Se7  1  0.48851  0.64033  0.13600  1
 Se  Se8  1  0.98851  0.35967  0.86400  1
 Se  Se9  1  0.98851  0.85967  0.63600  1
 Se  Se10  1  0.75000  0.72137  0.88038  1
 Se  Se11  1  0.25000  0.01600  0.88582  1
 Se  Se12  1  0.01149  0.64033  0.13600  1
 Se  Se13  1  0.75000  0.98400  0.11418  1
 Se  Se14  1  0.75000  0.48400  0.38582  1
 Se  Se15  1  0.48851  0.14033  0.36400  1
 Se  Se16  1  0.25000  0.51600  0.61418  1
 W  W1  1  0.25000  0.74994  0.56533  1
 W  W2  1  0.75000  0.75006  0.06533  1
 W  W3  1  0.75000  0.25006  0.43467  1
 W  W4  1  0.25000  0.24994  0.93467  1
