CIF file written using JARVIS-Tools package.
data_CaNbO3
_symmetry_space_group_name_H-M  'Pnma'
_cell_length_a       5.53798
_cell_length_b       5.71771
_cell_length_c       7.95039
_cell_angle_alpha    90
_cell_angle_beta     90
_cell_angle_gamma    90

_symmetry_Int_Tables_number  62
_chemical_formula_structural  CaNbO3
_chemical_formula_sum  Ca4Nb4O2
_cell_volume  251.74560920665732
_cell_formula_units_Z  4
loop_
  _symmetry_equiv_pos_site_id
 _symmetry_equiv_pos_as_xyz
 1  'x, y, z'
loop_
 _atom_site_type_symbol
 _atom_site_label
 _atom_site_symmetry_multiplicity
 _atom_site_fract_x
 _atom_site_fract_y
 _atom_site_fract_z
 _atom_site_fract_occupancy
 Ca  Ca1  1  0.98915  0.94604  0.75000  1
 Ca  Ca2  1  0.48915  0.55396  0.25000  1
 Ca  Ca3  1  0.51085  0.44604  0.75000  1
 Ca  Ca4  1  0.01085  0.05396  0.25000  1
 Nb  Nb1  1  0.50000  0.00000  0.50000  1
 Nb  Nb2  1  0.00000  0.50000  0.00000  1
 Nb  Nb3  1  0.50000  0.00000  0.00000  1
 Nb  Nb4  1  0.00000  0.50000  0.50000  1
 O  O1  1  0.30229  0.29751  0.45171  1
 O  O2  1  0.69771  0.70249  0.95171  1
 O  O3  1  0.19771  0.79751  0.04829  1
 O  O4  1  0.19771  0.79751  0.45171  1
 O  O5  1  0.69771  0.70249  0.54829  1
 O  O6  1  0.90769  0.47051  0.25000  1
 O  O7  1  0.80229  0.20249  0.95171  1
 O  O8  1  0.80229  0.20249  0.54829  1
 O  O9  1  0.59231  0.97051  0.25000  1
 O  O10  1  0.40769  0.02949  0.75000  1
 O  O11  1  0.30229  0.29751  0.04829  1
 O  O12  1  0.09231  0.52949  0.75000  1
