CIF file written using JARVIS-Tools package.
data_TaNF6
_symmetry_space_group_name_H-M  'R-3'
_cell_length_a       4.77768
_cell_length_b       4.77768
_cell_length_c       4.77768
_cell_angle_alpha    95.3371
_cell_angle_beta     95.3371
_cell_angle_gamma    95.3371

_symmetry_Int_Tables_number  148
_chemical_formula_structural  TaNF6
_chemical_formula_sum  TaNF6
_cell_volume  107.54273400402748
_cell_formula_units_Z  1
loop_
  _symmetry_equiv_pos_site_id
 _symmetry_equiv_pos_as_xyz
 1  'x, y, z'
loop_
 _atom_site_type_symbol
 _atom_site_label
 _atom_site_symmetry_multiplicity
 _atom_site_fract_x
 _atom_site_fract_y
 _atom_site_fract_z
 _atom_site_fract_occupancy
 F  F1  1  0.09417  0.77932  0.66952  1
 F  F2  1  0.66952  0.09417  0.77932  1
 F  F3  1  0.77932  0.66952  0.09417  1
 F  F4  1  0.90583  0.22068  0.33048  1
 F  F5  1  0.33048  0.90583  0.22068  1
 F  F6  1  0.22068  0.33048  0.90583  1
 N  N1  1  0.50000  0.50000  0.50000  1
 Ta  Ta1  1  0.00000  0.00000  0.00000  1
