CIF file written using JARVIS-Tools package.
data_Li2CuF4
_symmetry_space_group_name_H-M  'P2_1/c'
_cell_length_a       2.97605
_cell_length_b       9.34298
_cell_length_c       5.49902
_cell_angle_alpha    90
_cell_angle_beta     114.956
_cell_angle_gamma    90

_symmetry_Int_Tables_number  14
_chemical_formula_structural  Li2CuF4
_chemical_formula_sum  Li4Cu2F8
_cell_volume  138.6247647066375
_cell_formula_units_Z  2
loop_
  _symmetry_equiv_pos_site_id
 _symmetry_equiv_pos_as_xyz
 1  'x, y, z'
loop_
 _atom_site_type_symbol
 _atom_site_label
 _atom_site_symmetry_multiplicity
 _atom_site_fract_x
 _atom_site_fract_y
 _atom_site_fract_z
 _atom_site_fract_occupancy
 Cu  Cu1  1  0.00000  0.50000  0.50000  1
 Cu  Cu2  1  0.00000  0.00000  0.00000  1
 F  F1  1  0.01978  0.67665  0.68701  1
 F  F2  1  0.01978  0.82335  0.18701  1
 F  F3  1  0.57309  0.43758  0.80203  1
 F  F4  1  0.42691  0.93758  0.69797  1
 F  F5  1  0.57309  0.06242  0.30203  1
 F  F6  1  0.42691  0.56242  0.19797  1
 F  F7  1  -0.01978  0.17665  0.81299  1
 F  F8  1  -0.01978  0.32335  0.31299  1
 Li  Li1  1  0.74857  0.65132  0.96501  1
 Li  Li2  1  0.25143  0.15132  0.53499  1
 Li  Li3  1  0.74857  0.84868  0.46501  1
 Li  Li4  1  0.25143  0.34868  0.03499  1
