CIF file written using JARVIS-Tools package.
data_Li2Fe3O3F5
_symmetry_space_group_name_H-M  'Cm'
_cell_length_a       5.85378
_cell_length_b       5.86789
_cell_length_c       5.8467
_cell_angle_alpha    90.1983
_cell_angle_beta     120.039
_cell_angle_gamma    119.922

_symmetry_Int_Tables_number  8
_chemical_formula_structural  Li2Fe3O3F5
_chemical_formula_sum  Li2Fe3O3F5
_cell_volume  141.8441121088187
_cell_formula_units_Z  1
loop_
  _symmetry_equiv_pos_site_id
 _symmetry_equiv_pos_as_xyz
 1  'x, y, z'
loop_
 _atom_site_type_symbol
 _atom_site_label
 _atom_site_symmetry_multiplicity
 _atom_site_fract_x
 _atom_site_fract_y
 _atom_site_fract_z
 _atom_site_fract_occupancy
 F  F1  1  0.23026  0.84532  0.61520  1
 F  F2  1  0.72395  0.88204  0.13629  1
 F  F3  1  0.27830  0.41163  0.14496  1
 F  F4  1  0.73981  0.89656  0.58308  1
 F  F5  1  0.29438  0.88202  0.13628  1
 Fe  Fe1  1  0.22585  0.58507  0.86662  1
 Fe  Fe2  1  0.50780  0.25311  0.76251  1
 Fe  Fe3  1  0.76451  0.14966  0.37935  1
 Li  Li1  1  0.74136  0.62664  0.37712  1
 Li  Li2  1  0.26240  0.62665  0.37712  1
 O  O1  1  0.75460  0.36521  0.61035  1
 O  O2  1  0.75582  0.36086  0.15077  1
 O  O3  1  0.22097  0.36522  0.61035  1
