CIF file written using JARVIS-Tools package.
data_TaSe3
_symmetry_space_group_name_H-M  'P2_1/m'
_cell_length_a       3.524
_cell_length_b       9.95731
_cell_length_c       10.6553
_cell_angle_alpha    106.469
_cell_angle_beta     90
_cell_angle_gamma    90

_symmetry_Int_Tables_number  11
_chemical_formula_structural  TaSe3
_chemical_formula_sum  Ta4Se2
_cell_volume  358.55109349971355
_cell_formula_units_Z  4
loop_
  _symmetry_equiv_pos_site_id
 _symmetry_equiv_pos_as_xyz
 1  'x, y, z'
loop_
 _atom_site_type_symbol
 _atom_site_label
 _atom_site_symmetry_multiplicity
 _atom_site_fract_x
 _atom_site_fract_y
 _atom_site_fract_z
 _atom_site_fract_occupancy
 Se  Se1  1  0.75000  0.11962  0.60109  1
 Se  Se2  1  0.25000  0.88038  0.39891  1
 Se  Se3  1  0.75000  0.74080  0.61222  1
 Se  Se4  1  0.25000  0.25920  0.38778  1
 Se  Se5  1  0.25000  0.57674  0.91580  1
 Se  Se6  1  0.75000  0.42326  0.08420  1
 Se  Se7  1  0.25000  0.20107  0.86797  1
 Se  Se8  1  0.75000  0.79893  0.13203  1
 Se  Se9  1  0.25000  0.08052  0.15545  1
 Se  Se10  1  0.75000  0.91948  0.84455  1
 Se  Se11  1  0.25000  0.42328  0.63860  1
 Se  Se12  1  0.75000  0.57672  0.36140  1
 Ta  Ta1  1  0.75000  0.04859  0.32927  1
 Ta  Ta2  1  0.25000  0.95141  0.67073  1
 Ta  Ta3  1  0.75000  0.37522  0.80758  1
 Ta  Ta4  1  0.25000  0.62478  0.19242  1
