CIF file written using JARVIS-Tools package.
data_ScCl3
_symmetry_space_group_name_H-M  'R-3'
_cell_length_a       6.90483
_cell_length_b       6.90482
_cell_length_c       6.90483
_cell_angle_alpha    54.8338
_cell_angle_beta     54.8337
_cell_angle_gamma    54.8338

_symmetry_Int_Tables_number  148
_chemical_formula_structural  ScCl3
_chemical_formula_sum  Sc2Cl6
_cell_volume  204.7794176665117
_cell_formula_units_Z  2
loop_
  _symmetry_equiv_pos_site_id
 _symmetry_equiv_pos_as_xyz
 1  'x, y, z'
loop_
 _atom_site_type_symbol
 _atom_site_label
 _atom_site_symmetry_multiplicity
 _atom_site_fract_x
 _atom_site_fract_y
 _atom_site_fract_z
 _atom_site_fract_occupancy
 Cl  Cl1  1  0.56443  0.27373  0.91980  1
 Cl  Cl2  1  0.27373  0.91980  0.56443  1
 Cl  Cl3  1  0.08020  0.43557  0.72627  1
 Cl  Cl4  1  0.72627  0.08020  0.43557  1
 Cl  Cl5  1  0.43557  0.72627  0.08020  1
 Cl  Cl6  1  0.91980  0.56443  0.27373  1
 Sc  Sc1  1  0.66656  0.66656  0.66656  1
 Sc  Sc2  1  0.33344  0.33344  0.33344  1
