CIF file written using JARVIS-Tools package.
data_CeSe2
_symmetry_space_group_name_H-M  'Cm'
_cell_length_a       4.05986
_cell_length_b       4.05987
_cell_length_c       6.74245
_cell_angle_alpha    72.7621
_cell_angle_beta     72.7622
_cell_angle_gamma    59.9876

_symmetry_Int_Tables_number  8
_chemical_formula_structural  CeSe2
_chemical_formula_sum  CeSe2
_cell_volume  90.42313983835726
_cell_formula_units_Z  1
loop_
  _symmetry_equiv_pos_site_id
 _symmetry_equiv_pos_as_xyz
 1  'x, y, z'
loop_
 _atom_site_type_symbol
 _atom_site_label
 _atom_site_symmetry_multiplicity
 _atom_site_fract_x
 _atom_site_fract_y
 _atom_site_fract_z
 _atom_site_fract_occupancy
 Ce  Ce1  1  0.33279  0.33279  0.00154  1
 Se  Se1  1  0.75347  0.75347  0.73506  1
 Se  Se2  1  0.57804  0.57804  0.27040  1
