CIF file written using JARVIS-Tools package.
data_SrCoO3
_symmetry_space_group_name_H-M  'Pm-3m'
_cell_length_a       5.39946
_cell_length_b       5.39936
_cell_length_c       5.39945
_cell_angle_alpha    59.9998
_cell_angle_beta     89.9994
_cell_angle_gamma    120

_symmetry_Int_Tables_number  221
_chemical_formula_structural  SrCoO3
_chemical_formula_sum  Sr2Co2O6
_cell_volume  111.30702710187417
_cell_formula_units_Z  2
loop_
  _symmetry_equiv_pos_site_id
 _symmetry_equiv_pos_as_xyz
 1  'x, y, z'
loop_
 _atom_site_type_symbol
 _atom_site_label
 _atom_site_symmetry_multiplicity
 _atom_site_fract_x
 _atom_site_fract_y
 _atom_site_fract_z
 _atom_site_fract_occupancy
 Co  Co1  1  0.50000  0.00000  0.50000  1
 Co  Co2  1  0.00000  0.00000  0.00000  1
 O  O1  1  0.25000  0.00000  0.25000  1
 O  O2  1  0.75000  -0.00000  0.75000  1
 O  O3  1  0.25000  0.50000  0.75000  1
 O  O4  1  0.75000  0.50000  0.25000  1
 O  O5  1  0.25000  0.00000  0.75000  1
 O  O6  1  0.75000  -0.00000  0.25000  1
 Sr  Sr1  1  0.75000  0.50000  0.75000  1
 Sr  Sr2  1  0.25000  0.50000  0.25000  1
