CIF file written using JARVIS-Tools package.
data_Zr2CrN3
_symmetry_space_group_name_H-M  'Immm'
_cell_length_a       6.47974
_cell_length_b       3.09442
_cell_length_c       12.066
_cell_angle_alpha    90
_cell_angle_beta     21.3999
_cell_angle_gamma    76.1857

_symmetry_Int_Tables_number  71
_chemical_formula_structural  Zr2CrN3
_chemical_formula_sum  Zr2CrN3
_cell_volume  66.74976907708974
_cell_formula_units_Z  1
loop_
  _symmetry_equiv_pos_site_id
 _symmetry_equiv_pos_as_xyz
 1  'x, y, z'
loop_
 _atom_site_type_symbol
 _atom_site_label
 _atom_site_symmetry_multiplicity
 _atom_site_fract_x
 _atom_site_fract_y
 _atom_site_fract_z
 _atom_site_fract_occupancy
 Cr  Cr1  1  0.00000  0.00000  0.00000  1
 N  N1  1  -0.00000  0.50000  0.50000  1
 N  N2  1  0.00000  -0.00000  0.83073  1
 N  N3  1  -0.00000  0.00000  0.16927  1
 Zr  Zr1  1  0.00000  -0.00000  0.64920  1
 Zr  Zr2  1  -0.00000  0.00000  0.35080  1
