CIF file written using JARVIS-Tools package.
data_YB7Mo3
_symmetry_space_group_name_H-M  'Pnma'
_cell_length_a       3.10261
_cell_length_b       11.0308
_cell_length_c       12.9326
_cell_angle_alpha    89.9998
_cell_angle_beta     90
_cell_angle_gamma    90

_symmetry_Int_Tables_number  62
_chemical_formula_structural  YB7Mo3
_chemical_formula_sum  Y4B28Mo2
_cell_volume  442.6087395267712
_cell_formula_units_Z  4
loop_
  _symmetry_equiv_pos_site_id
 _symmetry_equiv_pos_as_xyz
 1  'x, y, z'
loop_
 _atom_site_type_symbol
 _atom_site_label
 _atom_site_symmetry_multiplicity
 _atom_site_fract_x
 _atom_site_fract_y
 _atom_site_fract_z
 _atom_site_fract_occupancy
 B  B1  1  0.25000  0.46256  0.01827  1
 B  B2  1  0.75000  0.01004  0.86229  1
 B  B3  1  0.75000  0.66505  0.66724  1
 B  B4  1  0.25000  0.98996  0.13771  1
 B  B5  1  0.25000  0.76900  0.91827  1
 B  B6  1  0.25000  0.48996  0.36229  1
 B  B7  1  0.75000  0.51004  0.63771  1
 B  B8  1  0.75000  0.16505  0.83276  1
 B  B9  1  0.75000  0.23100  0.08173  1
 B  B10  1  0.25000  0.33495  0.33276  1
 B  B11  1  0.25000  0.83495  0.16724  1
 B  B12  1  0.25000  0.26900  0.58173  1
 B  B13  1  0.75000  0.73100  0.41827  1
 B  B14  1  0.25000  0.74931  0.67346  1
 B  B15  1  0.25000  0.24931  0.82654  1
 B  B16  1  0.75000  0.25069  0.32654  1
 B  B17  1  0.25000  0.96256  0.48173  1
 B  B18  1  0.25000  0.31455  0.06705  1
 B  B19  1  0.75000  0.18545  0.56705  1
 B  B20  1  0.25000  0.81455  0.43295  1
 B  B21  1  0.75000  0.75069  0.17346  1
 B  B22  1  0.25000  0.43197  0.61582  1
 B  B23  1  0.75000  0.06803  0.11582  1
 B  B24  1  0.75000  0.56803  0.38418  1
 B  B25  1  0.75000  0.53744  0.98173  1
 B  B26  1  0.75000  0.03744  0.51827  1
 B  B27  1  0.75000  0.68545  0.93295  1
 B  B28  1  0.25000  0.93197  0.88418  1
 Mo  Mo1  1  0.75000  0.83976  0.56461  1
 Mo  Mo2  1  0.75000  0.33976  0.93539  1
 Mo  Mo3  1  0.25000  0.68513  0.29765  1
 Mo  Mo4  1  0.75000  0.31487  0.70235  1
 Mo  Mo5  1  0.25000  0.18513  0.20235  1
 Mo  Mo6  1  0.25000  0.16024  0.43539  1
 Mo  Mo7  1  0.25000  0.66024  0.06461  1
 Mo  Mo8  1  0.75000  0.88236  0.02683  1
 Mo  Mo9  1  0.75000  0.38236  0.47317  1
 Mo  Mo10  1  0.25000  0.61764  0.52683  1
 Mo  Mo11  1  0.75000  0.81487  0.79765  1
 Mo  Mo12  1  0.25000  0.11764  0.97317  1
 Y  Y1  1  0.25000  0.55015  0.80824  1
 Y  Y2  1  0.75000  0.44985  0.19176  1
 Y  Y3  1  0.25000  0.05015  0.69176  1
 Y  Y4  1  0.75000  0.94985  0.30824  1
