CIF file written using JARVIS-Tools package.
data_Sr2CaI6
_symmetry_space_group_name_H-M  'P-31m'
_cell_length_a       8.04231
_cell_length_b       8.04228
_cell_length_c       7.04881
_cell_angle_alpha    90.0001
_cell_angle_beta     89.9997
_cell_angle_gamma    120

_symmetry_Int_Tables_number  162
_chemical_formula_structural  Sr2CaI6
_chemical_formula_sum  Sr2CaI6
_cell_volume  394.82585280433597
_cell_formula_units_Z  1
loop_
  _symmetry_equiv_pos_site_id
 _symmetry_equiv_pos_as_xyz
 1  'x, y, z'
loop_
 _atom_site_type_symbol
 _atom_site_label
 _atom_site_symmetry_multiplicity
 _atom_site_fract_x
 _atom_site_fract_y
 _atom_site_fract_z
 _atom_site_fract_occupancy
 Ca  Ca1  1  -0.00001  0.00000  0.00000  1
 I  I1  1  0.99998  0.66989  0.76162  1
 I  I2  1  0.99998  0.33009  0.23839  1
 I  I3  1  0.33009  0.33011  0.76162  1
 I  I4  1  0.66989  0.66991  0.23839  1
 I  I5  1  0.33009  -0.00000  0.23837  1
 I  I6  1  0.66990  0.00000  0.76160  1
 Sr  Sr1  1  0.33332  0.66667  0.50000  1
 Sr  Sr2  1  0.66665  0.33333  0.50000  1
