CIF file written using JARVIS-Tools package.
data_Ba6Co25S27
_symmetry_space_group_name_H-M  'Pm-3m'
_cell_length_a       9.9677
_cell_length_b       9.9677
_cell_length_c       9.9677
_cell_angle_alpha    90
_cell_angle_beta     90
_cell_angle_gamma    90

_symmetry_Int_Tables_number  221
_chemical_formula_structural  Ba6Co25S27
_chemical_formula_sum  Ba6Co25S27
_cell_volume  990.3420013533882
_cell_formula_units_Z  1
loop_
  _symmetry_equiv_pos_site_id
 _symmetry_equiv_pos_as_xyz
 1  'x, y, z'
loop_
 _atom_site_type_symbol
 _atom_site_label
 _atom_site_symmetry_multiplicity
 _atom_site_fract_x
 _atom_site_fract_y
 _atom_site_fract_z
 _atom_site_fract_occupancy
 Ba  Ba1  1  0.50000  0.50000  0.19492  1
 Ba  Ba2  1  0.50000  0.80508  0.50000  1
 Ba  Ba3  1  0.50000  0.19492  0.50000  1
 Ba  Ba4  1  0.19492  0.50000  0.50000  1
 Ba  Ba5  1  0.80508  0.50000  0.50000  1
 Ba  Ba6  1  0.50000  0.50000  0.80508  1
 Co  Co1  1  0.63092  0.12930  0.87070  1
 Co  Co2  1  0.12930  0.87070  0.36908  1
 Co  Co3  1  0.12930  0.12930  0.63092  1
 Co  Co4  1  0.12930  0.36908  0.87070  1
 Co  Co5  1  0.87070  0.36908  0.12930  1
 Co  Co6  1  0.12930  0.12930  0.36908  1
 Co  Co7  1  0.36908  0.87070  0.12930  1
 Co  Co8  1  0.12930  0.87070  0.63092  1
 Co  Co9  1  0.63092  0.87070  0.12930  1
 Co  Co10  1  0.63092  0.12930  0.12930  1
 Co  Co11  1  0.12930  0.36908  0.12930  1
 Co  Co12  1  0.87070  0.12930  0.36908  1
 Co  Co13  1  0.36908  0.12930  0.12930  1
 Co  Co14  1  0.63092  0.87070  0.87070  1
 Co  Co15  1  0.87070  0.87070  0.36908  1
 Co  Co16  1  0.12930  0.63092  0.87070  1
 Co  Co17  1  0.87070  0.36908  0.87070  1
 Co  Co18  1  0.87070  0.63092  0.12930  1
 Co  Co19  1  0.36908  0.12930  0.87070  1
 Co  Co20  1  0.36908  0.87070  0.87070  1
 Co  Co21  1  0.12930  0.63092  0.12930  1
 Co  Co22  1  0.87070  0.12930  0.63092  1
 Co  Co23  1  0.87070  0.87070  0.63092  1
 Co  Co24  1  0.00000  0.00000  0.00000  1
 Co  Co25  1  0.87070  0.63092  0.87070  1
 S  S1  1  0.26337  0.26337  0.73663  1
 S  S2  1  0.26337  0.73663  0.26337  1
 S  S3  1  0.00000  0.76199  0.00000  1
 S  S4  1  0.23801  0.00000  0.00000  1
 S  S5  1  0.00000  0.00000  0.76199  1
 S  S6  1  0.00000  0.00000  0.23801  1
 S  S7  1  0.00000  0.23801  0.00000  1
 S  S8  1  0.50000  0.50000  0.50000  1
 S  S9  1  0.73663  0.26337  0.26337  1
 S  S10  1  0.00000  0.50000  0.75439  1
 S  S11  1  0.76199  0.00000  0.00000  1
 S  S12  1  0.73663  0.73663  0.26337  1
 S  S13  1  0.50000  0.75439  0.00000  1
 S  S14  1  0.73663  0.26337  0.73663  1
 S  S15  1  0.75439  0.50000  0.00000  1
 S  S16  1  0.75439  0.00000  0.50000  1
 S  S17  1  0.73663  0.73663  0.73663  1
 S  S18  1  0.50000  0.24561  0.00000  1
 S  S19  1  0.24561  0.00000  0.50000  1
 S  S20  1  0.50000  0.00000  0.24561  1
 S  S21  1  0.24561  0.50000  0.00000  1
 S  S22  1  0.00000  0.24561  0.50000  1
 S  S23  1  0.00000  0.75439  0.50000  1
 S  S24  1  0.00000  0.50000  0.24561  1
 S  S25  1  0.26337  0.73663  0.73663  1
 S  S26  1  0.26337  0.26337  0.26337  1
 S  S27  1  0.50000  0.00000  0.75439  1
