CIF file written using JARVIS-Tools package.
data_BaSrI4
_symmetry_space_group_name_H-M  'R-3m'
_cell_length_a       5.75542
_cell_length_b       9.9268
_cell_length_c       5.75542
_cell_angle_alpha    106.852
_cell_angle_beta     60
_cell_angle_gamma    106.852

_symmetry_Int_Tables_number  166
_chemical_formula_structural  BaSrI4
_chemical_formula_sum  BaSrI4
_cell_volume  268.34178159172353
_cell_formula_units_Z  1
loop_
  _symmetry_equiv_pos_site_id
 _symmetry_equiv_pos_as_xyz
 1  'x, y, z'
loop_
 _atom_site_type_symbol
 _atom_site_label
 _atom_site_symmetry_multiplicity
 _atom_site_fract_x
 _atom_site_fract_y
 _atom_site_fract_z
 _atom_site_fract_occupancy
 Ba  Ba1  1  0.00000  0.00000  0.00000  1
 I  I1  1  0.37813  0.13440  0.37813  1
 I  I2  1  0.12817  0.38452  0.12817  1
 I  I3  1  0.87183  0.61548  0.87183  1
 I  I4  1  0.62187  0.86560  0.62187  1
 Sr  Sr1  1  0.50000  0.50000  0.50000  1
