CIF file written using JARVIS-Tools package.
data_LiLuO2
_symmetry_space_group_name_H-M  'R-3m'
_cell_length_a       3.25795
_cell_length_b       5.30031
_cell_length_c       3.25795
_cell_angle_alpha    107.899
_cell_angle_beta     60.0001
_cell_angle_gamma    107.899

_symmetry_Int_Tables_number  166
_chemical_formula_structural  LiLuO2
_chemical_formula_sum  LiLuO2
_cell_volume  45.55035414968368
_cell_formula_units_Z  1
loop_
  _symmetry_equiv_pos_site_id
 _symmetry_equiv_pos_as_xyz
 1  'x, y, z'
loop_
 _atom_site_type_symbol
 _atom_site_label
 _atom_site_symmetry_multiplicity
 _atom_site_fract_x
 _atom_site_fract_y
 _atom_site_fract_z
 _atom_site_fract_occupancy
 Li  Li1  1  0.00000  0.00000  0.00000  1
 Lu  Lu1  1  0.50000  0.50000  0.50000  1
 O  O1  1  0.24507  0.73521  0.24507  1
 O  O2  1  0.75493  0.26479  0.75493  1
