CIF file written using JARVIS-Tools package.
data_V3O5F
_symmetry_space_group_name_H-M  'C2/m'
_cell_length_a       7.23025
_cell_length_b       5.45431
_cell_length_c       5.45431
_cell_angle_alpha    71.8118
_cell_angle_beta     69.9939
_cell_angle_gamma    69.9939

_symmetry_Int_Tables_number  12
_chemical_formula_structural  V3O5F
_chemical_formula_sum  V6O0F2
_cell_volume  185.22565026556526
_cell_formula_units_Z  2
loop_
  _symmetry_equiv_pos_site_id
 _symmetry_equiv_pos_as_xyz
 1  'x, y, z'
loop_
 _atom_site_type_symbol
 _atom_site_label
 _atom_site_symmetry_multiplicity
 _atom_site_fract_x
 _atom_site_fract_y
 _atom_site_fract_z
 _atom_site_fract_occupancy
 F  F1  1  0.03460  0.76878  0.76878  1
 F  F2  1  0.29874  0.89789  0.89789  1
 O  O1  1  0.69986  0.10109  0.10109  1
 O  O2  1  0.66667  0.03190  0.63477  1
 O  O3  1  0.33090  0.36882  0.96418  1
 O  O4  1  0.63347  0.56558  0.56558  1
 O  O5  1  0.96604  0.23737  0.23737  1
 O  O6  1  0.36729  0.42930  0.42930  1
 O  O7  1  0.00244  0.29785  0.70249  1
 O  O8  1  0.66667  0.63477  0.03190  1
 O  O9  1  0.00244  0.70249  0.29785  1
 O  O10  1  0.33090  0.96418  0.36882  1
 V  V1  1  0.98506  0.02283  0.02283  1
 V  V2  1  0.51434  0.00613  0.00613  1
 V  V3  1  0.16667  0.33333  0.33333  1
 V  V4  1  0.34828  0.64384  0.64384  1
 V  V5  1  0.66667  0.33333  0.33333  1
 V  V6  1  0.81899  0.66053  0.66053  1
