CIF file written using JARVIS-Tools package.
data_Nd3In
_symmetry_space_group_name_H-M  'P6_3/mmc'
_cell_length_a       7.11582
_cell_length_b       7.11582
_cell_length_c       5.59215
_cell_angle_alpha    90
_cell_angle_beta     90
_cell_angle_gamma    120

_symmetry_Int_Tables_number  194
_chemical_formula_structural  Nd3In
_chemical_formula_sum  Nd6In2
_cell_volume  245.22199077429278
_cell_formula_units_Z  2
loop_
  _symmetry_equiv_pos_site_id
 _symmetry_equiv_pos_as_xyz
 1  'x, y, z'
loop_
 _atom_site_type_symbol
 _atom_site_label
 _atom_site_symmetry_multiplicity
 _atom_site_fract_x
 _atom_site_fract_y
 _atom_site_fract_z
 _atom_site_fract_occupancy
 In  In1  1  0.66667  0.33333  0.25000  1
 In  In2  1  0.33333  0.66667  0.75000  1
 Nd  Nd1  1  0.82500  0.17500  0.75000  1
 Nd  Nd2  1  0.35000  0.17500  0.75000  1
 Nd  Nd3  1  0.82500  0.65000  0.75000  1
 Nd  Nd4  1  0.17500  0.82500  0.25000  1
 Nd  Nd5  1  0.65000  0.82500  0.25000  1
 Nd  Nd6  1  0.17500  0.35000  0.25000  1
