CIF file written using JARVIS-Tools package.
data_H5IO6
_symmetry_space_group_name_H-M  'P2_1/c'
_cell_length_a       5.35963
_cell_length_b       18.3541
_cell_length_c       4.84463
_cell_angle_alpha    90
_cell_angle_beta     112.764
_cell_angle_gamma    90

_symmetry_Int_Tables_number  14
_chemical_formula_structural  H5IO6
_chemical_formula_sum  H20I4O24
_cell_volume  439.4491931998306
_cell_formula_units_Z  4
loop_
  _symmetry_equiv_pos_site_id
 _symmetry_equiv_pos_as_xyz
 1  'x, y, z'
loop_
 _atom_site_type_symbol
 _atom_site_label
 _atom_site_symmetry_multiplicity
 _atom_site_fract_x
 _atom_site_fract_y
 _atom_site_fract_z
 _atom_site_fract_occupancy
 H  H1  1  0.15186  0.49714  0.81174  1
 H  H2  1  0.65186  0.00286  0.31174  1
 H  H3  1  0.84814  0.50286  0.18826  1
 H  H4  1  0.34814  -0.00286  0.68826  1
 H  H5  1  0.34555  0.55756  0.49834  1
 H  H6  1  0.84555  0.94244  -0.00166  1
 H  H7  1  0.65445  0.44244  0.50166  1
 H  H8  1  0.15445  0.05756  0.00166  1
 H  H9  1  0.08779  0.69819  0.40076  1
 H  H10  1  0.58779  0.80181  0.90076  1
 H  H11  1  0.91221  0.30181  0.59924  1
 H  H12  1  0.41221  0.19819  0.09924  1
 H  H13  1  0.62774  0.63158  0.01530  1
 H  H14  1  0.12774  0.86842  0.51530  1
 H  H15  1  0.37226  0.36842  0.98470  1
 H  H16  1  0.87226  0.13158  0.48470  1
 H  H17  1  0.85800  0.71739  0.71631  1
 H  H18  1  0.35800  0.78261  0.21631  1
 H  H19  1  0.14200  0.28261  0.28369  1
 H  H20  1  0.64200  0.21739  0.78369  1
 I  I1  1  0.17063  0.62166  0.01622  1
 I  I2  1  0.67063  0.87834  0.51622  1
 I  I3  1  0.82937  0.37834  0.98378  1
 I  I4  1  0.32937  0.12166  0.48378  1
 O  O1  1  0.05181  0.32454  0.34110  1
 O  O2  1  0.18877  0.54716  0.74303  1
 O  O3  1  0.68877  0.95284  0.24303  1
 O  O4  1  0.81123  0.45284  0.25697  1
 O  O5  1  0.31123  0.04716  0.75697  1
 O  O6  1  0.87658  0.58141  0.06509  1
 O  O7  1  0.37658  0.91859  0.56509  1
 O  O8  1  0.12342  0.41859  0.93491  1
 O  O9  1  0.62342  0.08141  0.43491  1
 O  O10  1  0.42847  0.56971  0.34996  1
 O  O11  1  0.57153  0.43029  0.65004  1
 O  O12  1  0.07153  0.06971  0.15004  1
 O  O13  1  0.66510  0.79153  0.74554  1
 O  O14  1  0.83490  0.29153  0.75446  1
 O  O15  1  0.33490  0.20847  0.25446  1
 O  O16  1  0.46847  0.66729  0.96402  1
 O  O17  1  0.96847  0.83271  0.46402  1
 O  O18  1  0.53153  0.33271  0.03598  1
 O  O19  1  0.03153  0.16729  0.53598  1
 O  O20  1  0.94819  0.67546  0.65890  1
 O  O21  1  0.44819  0.82454  0.15890  1
 O  O22  1  0.92847  0.93029  0.84996  1
 O  O23  1  0.16510  0.70847  0.24554  1
 O  O24  1  0.55181  0.17546  0.84110  1
