CIF file written using JARVIS-Tools package.
data_US3
_symmetry_space_group_name_H-M  'P2_1/m'
_cell_length_a       3.90328
_cell_length_b       5.39216
_cell_length_c       8.99878
_cell_angle_alpha    82.8746
_cell_angle_beta     90
_cell_angle_gamma    90

_symmetry_Int_Tables_number  11
_chemical_formula_structural  US3
_chemical_formula_sum  U2S6
_cell_volume  187.9359437064016
_cell_formula_units_Z  2
loop_
  _symmetry_equiv_pos_site_id
 _symmetry_equiv_pos_as_xyz
 1  'x, y, z'
loop_
 _atom_site_type_symbol
 _atom_site_label
 _atom_site_symmetry_multiplicity
 _atom_site_fract_x
 _atom_site_fract_y
 _atom_site_fract_z
 _atom_site_fract_occupancy
 S  S1  1  0.75000  0.48258  0.83079  1
 S  S2  1  0.25000  0.51742  0.16921  1
 S  S3  1  0.75000  0.86764  0.83803  1
 S  S4  1  0.25000  0.13236  0.16197  1
 S  S5  1  0.75000  0.76493  0.43133  1
 S  S6  1  0.25000  0.23507  0.56867  1
 U  U1  1  0.75000  0.28053  0.35196  1
 U  U2  1  0.25000  0.71947  0.64804  1
