CIF file written using JARVIS-Tools package.
data_LiCo4O8
_symmetry_space_group_name_H-M  'R-3m'
_cell_length_a       5.62798
_cell_length_b       5.62798
_cell_length_c       5.7257
_cell_angle_alpha    60.5631
_cell_angle_beta     60.5631
_cell_angle_gamma    60

_symmetry_Int_Tables_number  166
_chemical_formula_structural  LiCo4O8
_chemical_formula_sum  LiCo4O8
_cell_volume  129.31907292750003
_cell_formula_units_Z  1
loop_
  _symmetry_equiv_pos_site_id
 _symmetry_equiv_pos_as_xyz
 1  'x, y, z'
loop_
 _atom_site_type_symbol
 _atom_site_label
 _atom_site_symmetry_multiplicity
 _atom_site_fract_x
 _atom_site_fract_y
 _atom_site_fract_z
 _atom_site_fract_occupancy
 Co  Co1  1  0.50000  -0.00000  0.50000  1
 Co  Co2  1  -0.00000  -0.00000  0.50000  1
 Co  Co3  1  0.50000  0.50000  0.50000  1
 Co  Co4  1  -0.00000  0.50000  0.50000  1
 Li  Li1  1  0.50000  -0.00000  0.00000  1
 O  O1  1  0.73298  0.23298  0.30106  1
 O  O2  1  0.76398  0.26398  0.70448  1
 O  O3  1  0.23602  0.23244  0.29552  1
 O  O4  1  0.26756  0.26398  0.70448  1
 O  O5  1  0.73244  0.73602  0.29552  1
 O  O6  1  0.76398  0.76756  0.70448  1
 O  O7  1  0.23602  0.73602  0.29552  1
 O  O8  1  0.26702  0.76702  0.69894  1
