CIF file written using JARVIS-Tools package.
data_LiMn2OF3
_symmetry_space_group_name_H-M  'Pnma'
_cell_length_a       6.2002
_cell_length_b       6.25835
_cell_length_c       8.9725
_cell_angle_alpha    90
_cell_angle_beta     90
_cell_angle_gamma    90

_symmetry_Int_Tables_number  62
_chemical_formula_structural  LiMn2OF3
_chemical_formula_sum  Li4Mn8O4F2
_cell_volume  348.16018371092457
_cell_formula_units_Z  4
loop_
  _symmetry_equiv_pos_site_id
 _symmetry_equiv_pos_as_xyz
 1  'x, y, z'
loop_
 _atom_site_type_symbol
 _atom_site_label
 _atom_site_symmetry_multiplicity
 _atom_site_fract_x
 _atom_site_fract_y
 _atom_site_fract_z
 _atom_site_fract_occupancy
 F  F1  1  0.49902  0.99610  0.24199  1
 F  F2  1  0.00098  0.49610  0.25801  1
 F  F3  1  0.49902  0.49610  0.25801  1
 F  F4  1  0.75000  0.73225  0.52335  1
 F  F5  1  0.25000  0.26775  0.47665  1
 F  F6  1  0.50098  0.50390  0.74199  1
 F  F7  1  0.99902  0.50390  0.74199  1
 F  F8  1  0.50098  0.00390  0.75801  1
 F  F9  1  0.99902  0.00390  0.75801  1
 F  F10  1  0.25000  0.76775  0.02335  1
 F  F11  1  0.75000  0.23225  0.97665  1
 F  F12  1  0.00098  0.99610  0.24199  1
 Li  Li1  1  0.75000  0.96514  0.10496  1
 Li  Li2  1  0.75000  0.46514  0.39504  1
 Li  Li3  1  0.25000  0.53486  0.60496  1
 Li  Li4  1  0.25000  0.03486  0.89504  1
 Mn  Mn1  1  0.25000  0.73993  0.26575  1
 Mn  Mn2  1  0.25000  0.23993  0.23425  1
 Mn  Mn3  1  0.00000  0.00000  0.50000  1
 Mn  Mn4  1  0.50000  0.00000  0.50000  1
 Mn  Mn5  1  0.75000  0.76007  0.76575  1
 Mn  Mn6  1  0.75000  0.26007  0.73425  1
 Mn  Mn7  1  0.50000  0.50000  0.00000  1
 Mn  Mn8  1  0.00000  0.50000  0.00000  1
 O  O1  1  0.25000  0.29894  0.01466  1
 O  O2  1  0.75000  0.70106  0.98534  1
 O  O3  1  0.75000  0.20106  0.51466  1
 O  O4  1  0.25000  0.79894  0.48534  1
