CIF file written using JARVIS-Tools package.
data_U3O8
_symmetry_space_group_name_H-M  'Cmcm'
_cell_length_a       6.97918
_cell_length_b       8.32054
_cell_length_c       11.6306
_cell_angle_alpha    90
_cell_angle_beta     89.9997
_cell_angle_gamma    90

_symmetry_Int_Tables_number  63
_chemical_formula_structural  U3O8
_chemical_formula_sum  U2O32
_cell_volume  675.3954765104078
_cell_formula_units_Z  4
loop_
  _symmetry_equiv_pos_site_id
 _symmetry_equiv_pos_as_xyz
 1  'x, y, z'
loop_
 _atom_site_type_symbol
 _atom_site_label
 _atom_site_symmetry_multiplicity
 _atom_site_fract_x
 _atom_site_fract_y
 _atom_site_fract_z
 _atom_site_fract_occupancy
 O  O1  1  0.82046  0.75000  0.15306  1
 O  O2  1  0.50000  0.00000  0.50000  1
 O  O3  1  0.67954  0.25000  0.34695  1
 O  O4  1  0.47584  0.25000  -0.00001  1
 O  O5  1  0.30894  0.25000  0.64182  1
 O  O6  1  0.00001  0.49999  0.68470  1
 O  O7  1  0.69106  0.75000  0.35818  1
 O  O8  1  0.49999  -0.00001  0.81530  1
 O  O9  1  0.19105  0.75000  0.85818  1
 O  O10  1  -0.00001  0.50001  0.31530  1
 O  O11  1  0.80895  0.25000  0.14182  1
 O  O12  1  0.49999  0.50001  0.81530  1
 O  O13  1  0.17954  0.25000  0.84694  1
 O  O14  1  0.82045  0.75000  0.84695  1
 O  O15  1  0.02415  0.75000  0.50001  1
 O  O16  1  0.67955  0.25000  0.65306  1
 O  O17  1  0.50000  0.50000  0.50000  1
 O  O18  1  0.52416  0.75000  0.00001  1
 O  O19  1  0.00001  0.00001  0.68470  1
 O  O20  1  0.19107  0.75000  0.14181  1
 O  O21  1  0.50001  0.00001  0.18470  1
 O  O22  1  0.00000  0.50000  0.00000  1
 O  O23  1  0.00000  0.00000  0.00000  1
 O  O24  1  0.17955  0.25000  0.15305  1
 O  O25  1  0.32046  0.75000  0.65305  1
 O  O26  1  0.97585  0.25000  0.49999  1
 O  O27  1  0.50001  0.49999  0.18470  1
 O  O28  1  -0.00001  -0.00001  0.31530  1
 O  O29  1  0.32045  0.75000  0.34694  1
 O  O30  1  0.80893  0.25000  0.85819  1
 O  O31  1  0.30893  0.25000  0.35818  1
 O  O32  1  0.69107  0.75000  0.64182  1
 U  U1  1  0.50396  0.25000  0.50000  1
 U  U2  1  0.00127  0.75000  0.31904  1
 U  U3  1  0.49604  0.75000  0.50000  1
 U  U4  1  0.50128  0.75000  0.18096  1
 U  U5  1  -0.00127  0.25000  0.68096  1
 U  U6  1  0.00397  0.25000  -0.00000  1
 U  U7  1  -0.00128  0.25000  0.31904  1
 U  U8  1  0.50127  0.75000  0.81904  1
 U  U9  1  0.00128  0.75000  0.68096  1
 U  U10  1  0.99603  0.75000  0.00000  1
 U  U11  1  0.49872  0.25000  0.81904  1
 U  U12  1  0.49873  0.25000  0.18096  1
