CIF file written using JARVIS-Tools package.
data_MgSb
_symmetry_space_group_name_H-M  'C2/m'
_cell_length_a       12.0674
_cell_length_b       4.10371
_cell_length_c       4.37706
_cell_angle_alpha    90
_cell_angle_beta     109.584
_cell_angle_gamma    90

_symmetry_Int_Tables_number  12
_chemical_formula_structural  MgSb
_chemical_formula_sum  Mg4Sb4
_cell_volume  204.21701668963794
_cell_formula_units_Z  4
loop_
  _symmetry_equiv_pos_site_id
 _symmetry_equiv_pos_as_xyz
 1  'x, y, z'
loop_
 _atom_site_type_symbol
 _atom_site_label
 _atom_site_symmetry_multiplicity
 _atom_site_fract_x
 _atom_site_fract_y
 _atom_site_fract_z
 _atom_site_fract_occupancy
 Mg  Mg1  1  0.86362  0.50000  0.72008  1
 Mg  Mg2  1  0.63638  0.00000  0.27992  1
 Mg  Mg3  1  0.36362  0.00000  0.72008  1
 Mg  Mg4  1  0.13638  0.50000  0.27992  1
 Sb  Sb1  1  0.61677  0.50000  0.75635  1
 Sb  Sb2  1  0.88323  0.00000  0.24365  1
 Sb  Sb3  1  0.11677  0.00000  0.75635  1
 Sb  Sb4  1  0.38323  0.50000  0.24365  1
