CIF file written using JARVIS-Tools package.
data_YB4Mo
_symmetry_space_group_name_H-M  'Pbam'
_cell_length_a       3.64231
_cell_length_b       6.02678
_cell_length_c       11.6437
_cell_angle_alpha    90
_cell_angle_beta     90
_cell_angle_gamma    90

_symmetry_Int_Tables_number  55
_chemical_formula_structural  YB4Mo
_chemical_formula_sum  Y4B6Mo4
_cell_volume  255.59418833384993
_cell_formula_units_Z  4
loop_
  _symmetry_equiv_pos_site_id
 _symmetry_equiv_pos_as_xyz
 1  'x, y, z'
loop_
 _atom_site_type_symbol
 _atom_site_label
 _atom_site_symmetry_multiplicity
 _atom_site_fract_x
 _atom_site_fract_y
 _atom_site_fract_z
 _atom_site_fract_occupancy
 B  B1  1  0.50000  0.28666  0.31388  1
 B  B2  1  0.50000  0.11403  0.54749  1
 B  B3  1  0.50000  0.88597  0.45251  1
 B  B4  1  0.50000  0.61403  0.95251  1
 B  B5  1  0.50000  0.38597  0.04749  1
 B  B6  1  0.50000  0.97576  0.30653  1
 B  B7  1  0.50000  0.21334  0.81388  1
 B  B8  1  0.50000  0.78666  0.18612  1
 B  B9  1  0.50000  0.36646  0.46830  1
 B  B10  1  0.50000  0.63354  0.53170  1
 B  B11  1  0.50000  0.86646  0.03170  1
 B  B12  1  0.50000  0.13354  0.96830  1
 B  B13  1  0.50000  0.02424  0.69347  1
 B  B14  1  0.50000  0.71334  0.68612  1
 B  B15  1  0.50000  0.47576  0.19347  1
 B  B16  1  0.50000  0.52424  0.80653  1
 Mo  Mo1  1  0.00000  0.62928  0.08344  1
 Mo  Mo2  1  0.00000  0.12928  0.41656  1
 Mo  Mo3  1  0.00000  0.37072  0.91656  1
 Mo  Mo4  1  0.00000  0.87072  0.58344  1
 Y  Y1  1  0.00000  0.12680  0.14979  1
 Y  Y2  1  0.00000  0.87320  0.85021  1
 Y  Y3  1  0.00000  0.62680  0.35021  1
 Y  Y4  1  0.00000  0.37320  0.64979  1
