CIF file written using JARVIS-Tools package.
data_TiMn3P4O16
_symmetry_space_group_name_H-M  'Pm'
_cell_length_a       4.86146
_cell_length_b       5.92374
_cell_length_c       9.8095
_cell_angle_alpha    90
_cell_angle_beta     90.1235
_cell_angle_gamma    90

_symmetry_Int_Tables_number  6
_chemical_formula_structural  TiMn3P4O16
_chemical_formula_sum  TiMn3P4O6
_cell_volume  282.49412702521636
_cell_formula_units_Z  1
loop_
  _symmetry_equiv_pos_site_id
 _symmetry_equiv_pos_as_xyz
 1  'x, y, z'
loop_
 _atom_site_type_symbol
 _atom_site_label
 _atom_site_symmetry_multiplicity
 _atom_site_fract_x
 _atom_site_fract_y
 _atom_site_fract_z
 _atom_site_fract_occupancy
 Mn  Mn1  1  0.07703  0.00000  0.71821  1
 Mn  Mn2  1  0.43148  0.00000  0.22025  1
 Mn  Mn3  1  0.58079  0.50000  0.78018  1
 O  O1  1  0.75485  0.20486  0.83376  1
 O  O2  1  0.15199  0.50000  0.43919  1
 O  O3  1  0.25524  0.29481  0.66309  1
 O  O4  1  0.25524  0.70519  0.66309  1
 O  O5  1  0.77193  0.20809  0.33446  1
 O  O6  1  0.29577  0.00000  0.87730  1
 O  O7  1  0.21547  0.30094  0.16457  1
 O  O8  1  0.22068  0.00000  0.38785  1
 O  O9  1  0.33855  0.50000  0.93793  1
 O  O10  1  0.65538  0.00000  0.05779  1
 O  O11  1  0.84010  0.00000  0.56110  1
 O  O12  1  0.21547  0.69906  0.16457  1
 O  O13  1  0.67502  0.50000  0.13298  1
 O  O14  1  0.79626  0.50000  0.61873  1
 O  O15  1  0.77193  0.79191  0.33446  1
 O  O16  1  0.75485  0.79514  0.83376  1
 P  P1  1  0.91098  0.00000  0.40943  1
 P  P2  1  0.60853  0.00000  0.90347  1
 P  P3  1  0.37091  0.50000  0.09107  1
 P  P4  1  0.10788  0.50000  0.59696  1
 Ti  Ti1  1  0.94367  0.50000  0.27579  1
