CIF file written using JARVIS-Tools package.
data_Rb2CoS2
_symmetry_space_group_name_H-M  'Ibam'
_cell_length_a       6.04284
_cell_length_b       6.94125
_cell_length_c       7.99319
_cell_angle_alpha    115.734
_cell_angle_beta     112.21
_cell_angle_gamma    90

_symmetry_Int_Tables_number  72
_chemical_formula_structural  Rb2CoS2
_chemical_formula_sum  Rb4Co2S4
_cell_volume  274.14361388462356
_cell_formula_units_Z  2
loop_
  _symmetry_equiv_pos_site_id
 _symmetry_equiv_pos_as_xyz
 1  'x, y, z'
loop_
 _atom_site_type_symbol
 _atom_site_label
 _atom_site_symmetry_multiplicity
 _atom_site_fract_x
 _atom_site_fract_y
 _atom_site_fract_z
 _atom_site_fract_occupancy
 Co  Co1  1  0.25000  -0.00000  0.00000  1
 Co  Co2  1  0.75000  -0.00000  0.00000  1
 Rb  Rb1  1  0.64795  0.80959  0.29589  1
 Rb  Rb2  1  0.35205  0.19041  0.70411  1
 Rb  Rb3  1  0.85205  0.51369  0.70411  1
 Rb  Rb4  1  0.14795  0.48631  0.29589  1
 S  S1  1  0.40359  0.72798  0.80718  1
 S  S2  1  0.59641  0.27202  0.19282  1
 S  S3  1  0.09641  0.92081  0.19282  1
 S  S4  1  0.90359  0.07919  0.80718  1
