CIF file written using JARVIS-Tools package.
data_KLaSiC4N8
_symmetry_space_group_name_H-M  'P2_12_12'
_cell_length_a       6.86926
_cell_length_b       7.44707
_cell_length_c       9.65875
_cell_angle_alpha    90
_cell_angle_beta     90
_cell_angle_gamma    90

_symmetry_Int_Tables_number  18
_chemical_formula_structural  KLaSiC4N8
_chemical_formula_sum  K2La2Si2C8N6
_cell_volume  494.1021781409879
_cell_formula_units_Z  2
loop_
  _symmetry_equiv_pos_site_id
 _symmetry_equiv_pos_as_xyz
 1  'x, y, z'
loop_
 _atom_site_type_symbol
 _atom_site_label
 _atom_site_symmetry_multiplicity
 _atom_site_fract_x
 _atom_site_fract_y
 _atom_site_fract_z
 _atom_site_fract_occupancy
 C  C1  1  0.12307  0.28335  0.79976  1
 C  C2  1  0.12307  0.71665  0.20024  1
 C  C3  1  0.87693  0.78335  0.70024  1
 C  C4  1  0.36803  0.67027  0.76969  1
 C  C5  1  0.36803  0.32973  0.23031  1
 C  C6  1  0.87693  0.21665  0.29976  1
 C  C7  1  0.63197  0.17027  0.73031  1
 C  C8  1  0.63197  0.82973  0.26969  1
 K  K1  1  0.92239  0.00000  0.00000  1
 K  K2  1  0.07761  0.50000  0.50000  1
 La  La1  1  0.74064  0.50000  0.00000  1
 La  La2  1  0.25936  0.00000  0.50000  1
 N  N1  1  0.91344  0.14078  0.41457  1
 N  N2  1  0.40669  0.60251  0.88724  1
 N  N3  1  0.66525  0.76712  0.15835  1
 N  N4  1  0.14975  0.79054  0.30810  1
 N  N5  1  0.33475  0.26712  0.34165  1
 N  N6  1  0.33475  0.73288  0.65835  1
 N  N7  1  0.66525  0.23288  0.84165  1
 N  N8  1  0.14975  0.20946  0.69190  1
 N  N9  1  0.59331  0.10251  0.61276  1
 N  N10  1  0.85025  0.70946  0.80810  1
 N  N11  1  0.08656  0.35922  0.91457  1
 N  N12  1  0.40669  0.39749  0.11276  1
 N  N13  1  0.59331  0.89749  0.38724  1
 N  N14  1  0.08656  0.64078  0.08543  1
 N  N15  1  0.85025  0.29054  0.19190  1
 N  N16  1  0.91344  0.85922  0.58543  1
 Si  Si1  1  0.24743  0.50000  0.00000  1
 Si  Si2  1  0.75257  0.00000  0.50000  1
