CIF file written using JARVIS-Tools package.
data_MnH2SeO5
_symmetry_space_group_name_H-M  'C2/c'
_cell_length_a       5.45009
_cell_length_b       5.45009
_cell_length_c       7.8827
_cell_angle_alpha    72.8407
_cell_angle_beta     107.159
_cell_angle_gamma    81.3745

_symmetry_Int_Tables_number  15
_chemical_formula_structural  MnH2SeO5
_chemical_formula_sum  Mn2H4Se2O0
_cell_volume  206.43377561506225
_cell_formula_units_Z  2
loop_
  _symmetry_equiv_pos_site_id
 _symmetry_equiv_pos_as_xyz
 1  'x, y, z'
loop_
 _atom_site_type_symbol
 _atom_site_label
 _atom_site_symmetry_multiplicity
 _atom_site_fract_x
 _atom_site_fract_y
 _atom_site_fract_z
 _atom_site_fract_occupancy
 H  H1  1  0.41771  0.16029  0.79419  1
 H  H2  1  0.16029  0.41771  0.70581  1
 H  H3  1  0.58229  0.83971  0.20581  1
 H  H4  1  0.83971  0.58229  0.29419  1
 Mn  Mn1  1  0.50000  0.50000  0.50000  1
 Mn  Mn2  1  0.50000  0.50000  0.00000  1
 O  O1  1  0.35964  0.35964  0.75000  1
 O  O2  1  0.76857  0.13280  0.57795  1
 O  O3  1  0.86720  0.23143  0.07795  1
 O  O4  1  0.13280  0.76857  0.92205  1
 O  O5  1  0.84007  0.59484  0.65754  1
 O  O6  1  0.40516  0.15993  0.15754  1
 O  O7  1  0.15993  0.40516  0.34246  1
 O  O8  1  0.23143  0.86720  0.42205  1
 O  O9  1  0.59484  0.84007  0.84246  1
 O  O10  1  0.64036  0.64036  0.25000  1
 Se  Se1  1  0.16193  0.16193  0.25000  1
 Se  Se2  1  0.83807  0.83807  0.75000  1
