CIF file written using JARVIS-Tools package.
data_V2CdP2O9
_symmetry_space_group_name_H-M  'Pnma'
_cell_length_a       6.36377
_cell_length_b       7.27382
_cell_length_c       14.409
_cell_angle_alpha    90
_cell_angle_beta     90
_cell_angle_gamma    90

_symmetry_Int_Tables_number  62
_chemical_formula_structural  V2CdP2O9
_chemical_formula_sum  V8Cd4P8O36
_cell_volume  666.9749586872989
_cell_formula_units_Z  4
loop_
  _symmetry_equiv_pos_site_id
 _symmetry_equiv_pos_as_xyz
 1  'x, y, z'
loop_
 _atom_site_type_symbol
 _atom_site_label
 _atom_site_symmetry_multiplicity
 _atom_site_fract_x
 _atom_site_fract_y
 _atom_site_fract_z
 _atom_site_fract_occupancy
 Cd  Cd1  1  0.25000  0.13000  0.22085  1
 Cd  Cd2  1  0.75000  0.87000  0.77915  1
 Cd  Cd3  1  0.75000  0.63000  0.27915  1
 Cd  Cd4  1  0.25000  0.37000  0.72085  1
 O  O1  1  0.25000  0.04224  0.73508  1
 O  O2  1  0.45135  0.88715  0.86916  1
 O  O3  1  0.95135  0.38715  0.63084  1
 O  O4  1  0.45135  0.61285  0.36916  1
 O  O5  1  0.04865  0.88715  0.86916  1
 O  O6  1  0.54865  0.11285  0.13084  1
 O  O7  1  0.25000  0.32867  0.47834  1
 O  O8  1  0.75000  0.67133  0.52166  1
 O  O9  1  0.75000  0.82867  0.02166  1
 O  O10  1  0.25000  0.17133  0.97834  1
 O  O11  1  0.44059  0.37616  0.86552  1
 O  O12  1  0.75000  0.13174  0.94677  1
 O  O13  1  0.75000  0.36826  0.44677  1
 O  O14  1  0.95135  0.11285  0.13084  1
 O  O15  1  0.75000  0.20843  0.75484  1
 O  O16  1  0.25000  0.79157  0.24516  1
 O  O17  1  0.25000  0.70843  0.74516  1
 O  O18  1  0.75000  0.29157  0.25484  1
 O  O19  1  0.44059  0.12384  0.36552  1
 O  O20  1  0.94059  0.87616  0.63448  1
 O  O21  1  0.55941  0.62384  0.13448  1
 O  O22  1  0.05941  0.37616  0.86552  1
 O  O23  1  0.55941  0.87616  0.63448  1
 O  O24  1  0.25000  0.63174  0.55323  1
 O  O25  1  0.54865  0.38715  0.63084  1
 O  O26  1  0.94059  0.62384  0.13448  1
 O  O27  1  0.04865  0.61285  0.36916  1
 O  O28  1  0.25000  0.86826  0.05323  1
 O  O29  1  0.25000  0.45776  0.23508  1
 O  O30  1  0.75000  0.54225  0.76492  1
 O  O31  1  0.75000  0.00829  0.49272  1
 O  O32  1  0.25000  0.99171  0.50728  1
 O  O33  1  0.25000  0.50829  0.00728  1
 O  O34  1  0.75000  0.95775  0.26492  1
 O  O35  1  0.75000  0.49171  0.99272  1
 O  O36  1  0.05941  0.12384  0.36552  1
 P  P1  1  0.75000  0.63446  0.06796  1
 P  P2  1  0.75000  0.86554  0.56796  1
 P  P3  1  0.25000  0.13446  0.43204  1
 P  P4  1  0.25000  0.88318  0.80750  1
 P  P5  1  0.75000  0.11682  0.19250  1
 P  P6  1  0.75000  0.38318  0.69250  1
 P  P7  1  0.25000  0.61682  0.30750  1
 P  P8  1  0.25000  0.36554  0.93204  1
 V  V1  1  0.75000  0.15410  0.38043  1
 V  V2  1  0.50000  0.00000  0.00000  1
 V  V3  1  0.75000  0.34590  0.88043  1
 V  V4  1  0.25000  0.65410  0.11957  1
 V  V5  1  0.25000  0.84590  0.61957  1
 V  V6  1  0.00000  0.00000  0.00000  1
 V  V7  1  0.50000  0.50000  0.50000  1
 V  V8  1  0.00000  0.50000  0.50000  1
