CIF file written using JARVIS-Tools package.
data_LiCrO2
_symmetry_space_group_name_H-M  'I4_1/amd'
_cell_length_a       5.20035
_cell_length_b       5.20034
_cell_length_c       5.20035
_cell_angle_alpha    134.665
_cell_angle_beta     134.665
_cell_angle_gamma    66.0519

_symmetry_Int_Tables_number  141
_chemical_formula_structural  LiCrO2
_chemical_formula_sum  Li2Cr2O4
_cell_volume  70.05102060027366
_cell_formula_units_Z  2
loop_
  _symmetry_equiv_pos_site_id
 _symmetry_equiv_pos_as_xyz
 1  'x, y, z'
loop_
 _atom_site_type_symbol
 _atom_site_label
 _atom_site_symmetry_multiplicity
 _atom_site_fract_x
 _atom_site_fract_y
 _atom_site_fract_z
 _atom_site_fract_occupancy
 Cr  Cr1  1  0.00000  0.00000  0.00000  1
 Cr  Cr2  1  0.75000  0.25000  0.50000  1
 Li  Li1  1  0.25000  0.75000  0.50000  1
 Li  Li2  1  0.50000  0.50000  0.00000  1
 O  O1  1  0.52108  0.02108  0.50000  1
 O  O2  1  0.22892  0.22892  1.00000  1
 O  O3  1  0.97892  0.47892  0.50000  1
 O  O4  1  0.77108  0.77108  0.00000  1
