CIF file written using JARVIS-Tools package.
data_SrTaNO2
_symmetry_space_group_name_H-M  'Pmc2_1'
_cell_length_a       4.00346
_cell_length_b       5.79517
_cell_length_c       5.78561
_cell_angle_alpha    90
_cell_angle_beta     90
_cell_angle_gamma    90

_symmetry_Int_Tables_number  26
_chemical_formula_structural  SrTaNO2
_chemical_formula_sum  Sr2Ta2N2O4
_cell_volume  134.23062786490584
_cell_formula_units_Z  2
loop_
  _symmetry_equiv_pos_site_id
 _symmetry_equiv_pos_as_xyz
 1  'x, y, z'
loop_
 _atom_site_type_symbol
 _atom_site_label
 _atom_site_symmetry_multiplicity
 _atom_site_fract_x
 _atom_site_fract_y
 _atom_site_fract_z
 _atom_site_fract_occupancy
 N  N1  1  0.00000  0.48507  0.76216  1
 N  N2  1  0.00000  0.51493  0.26216  1
 O  O1  1  0.50000  0.77161  0.98887  1
 O  O2  1  0.00000  0.97869  0.71735  1
 O  O3  1  0.00000  0.02131  0.21735  1
 O  O4  1  0.50000  0.22839  0.48887  1
 Sr  Sr1  1  0.50000  0.76256  0.51652  1
 Sr  Sr2  1  0.50000  0.23744  0.01652  1
 Ta  Ta1  1  0.00000  0.73482  0.01513  1
 Ta  Ta2  1  0.00000  0.26518  0.51513  1
