CIF file written using JARVIS-Tools package.
data_Li4Fe3Si3O12
_symmetry_space_group_name_H-M  'C2'
_cell_length_a       4.31299
_cell_length_b       5.35496
_cell_length_c       11.8756
_cell_angle_alpha    89.6493
_cell_angle_beta     100.462
_cell_angle_gamma    113.748

_symmetry_Int_Tables_number  5
_chemical_formula_structural  Li4Fe3Si3O12
_chemical_formula_sum  Li4Fe3Si3O2
_cell_volume  246.19474623417693
_cell_formula_units_Z  1
loop_
  _symmetry_equiv_pos_site_id
 _symmetry_equiv_pos_as_xyz
 1  'x, y, z'
loop_
 _atom_site_type_symbol
 _atom_site_label
 _atom_site_symmetry_multiplicity
 _atom_site_fract_x
 _atom_site_fract_y
 _atom_site_fract_z
 _atom_site_fract_occupancy
 Fe  Fe1  1  0.50162  0.83351  0.16669  1
 Fe  Fe2  1  0.49170  0.48899  0.49619  1
 Fe  Fe3  1  0.50640  0.17744  0.83712  1
 Li  Li1  1  0.25111  0.91707  0.57981  1
 Li  Li2  1  0.75412  0.74931  0.75355  1
 Li  Li3  1  0.75008  0.42216  0.08192  1
 Li  Li4  1  0.24610  0.24478  0.25137  1
 O  O1  1  0.12618  0.22337  0.55958  1
 O  O2  1  0.30996  0.75468  0.44662  1
 O  O3  1  0.89659  0.92142  0.28879  1
 O  O4  1  0.88861  0.58777  0.62827  1
 O  O5  1  0.10859  0.91189  0.88674  1
 O  O6  1  0.11326  0.55342  0.22286  1
 O  O7  1  0.86646  0.24818  0.96814  1
 O  O8  1  0.33711  0.11353  0.11046  1
 O  O9  1  0.34308  0.44304  0.77374  1
 O  O10  1  0.68646  0.74551  0.04458  1
 O  O11  1  0.65019  0.41862  0.36514  1
 O  O12  1  0.67243  0.07861  0.70506  1
 Si  Si1  1  0.99857  0.00205  0.00063  1
 Si  Si2  1  0.00540  0.33320  0.66666  1
 Si  Si3  1  0.99600  0.66480  0.33271  1
