CIF file written using JARVIS-Tools package.
data_U2Cu2As3O
_symmetry_space_group_name_H-M  'P4/nmm'
_cell_length_a       3.91615
_cell_length_b       3.91615
_cell_length_c       18.0684
_cell_angle_alpha    90
_cell_angle_beta     90
_cell_angle_gamma    90

_symmetry_Int_Tables_number  129
_chemical_formula_structural  U2Cu2As3O
_chemical_formula_sum  U4Cu4As6O2
_cell_volume  277.10063482239593
_cell_formula_units_Z  2
loop_
  _symmetry_equiv_pos_site_id
 _symmetry_equiv_pos_as_xyz
 1  'x, y, z'
loop_
 _atom_site_type_symbol
 _atom_site_label
 _atom_site_symmetry_multiplicity
 _atom_site_fract_x
 _atom_site_fract_y
 _atom_site_fract_z
 _atom_site_fract_occupancy
 As  As1  1  0.75000  0.75000  0.14726  1
 As  As2  1  0.75000  0.75000  0.67720  1
 As  As3  1  0.25000  0.25000  0.32280  1
 As  As4  1  0.25000  0.25000  0.85274  1
 As  As5  1  0.25000  0.75000  0.50000  1
 As  As6  1  0.75000  0.25000  0.50000  1
 Cu  Cu1  1  0.75000  0.25000  0.76962  1
 Cu  Cu2  1  0.25000  0.75000  0.76962  1
 Cu  Cu3  1  0.75000  0.25000  0.23038  1
 Cu  Cu4  1  0.25000  0.75000  0.23038  1
 O  O1  1  0.25000  0.75000  0.00000  1
 O  O2  1  0.75000  0.25000  0.00000  1
 U  U1  1  0.25000  0.25000  0.62554  1
 U  U2  1  0.25000  0.25000  0.07036  1
 U  U3  1  0.75000  0.75000  0.92964  1
 U  U4  1  0.75000  0.75000  0.37446  1
