CIF file written using JARVIS-Tools package.
data_Pb3Br2O2
_symmetry_space_group_name_H-M  'Pnma'
_cell_length_a       5.94369
_cell_length_b       9.91142
_cell_length_c       12.3179
_cell_angle_alpha    90
_cell_angle_beta     90
_cell_angle_gamma    90

_symmetry_Int_Tables_number  62
_chemical_formula_structural  Pb3Br2O2
_chemical_formula_sum  Pb2Br8O8
_cell_volume  725.6540740970916
_cell_formula_units_Z  4
loop_
  _symmetry_equiv_pos_site_id
 _symmetry_equiv_pos_as_xyz
 1  'x, y, z'
loop_
 _atom_site_type_symbol
 _atom_site_label
 _atom_site_symmetry_multiplicity
 _atom_site_fract_x
 _atom_site_fract_y
 _atom_site_fract_z
 _atom_site_fract_occupancy
 Br  Br1  1  0.75000  0.30637  0.69003  1
 Br  Br2  1  0.25000  0.42728  0.87061  1
 Br  Br3  1  0.25000  0.07272  0.37061  1
 Br  Br4  1  0.75000  0.57272  0.12939  1
 Br  Br5  1  0.75000  0.92728  0.62939  1
 Br  Br6  1  0.25000  0.80637  0.80997  1
 Br  Br7  1  0.25000  0.69363  0.30997  1
 Br  Br8  1  0.75000  0.19363  0.19003  1
 O  O1  1  0.00354  0.61233  0.57731  1
 O  O2  1  0.50354  0.11233  0.92269  1
 O  O3  1  0.00354  0.88767  0.07731  1
 O  O4  1  0.49646  0.61233  0.57731  1
 O  O5  1  0.99646  0.38767  0.42269  1
 O  O6  1  0.99646  0.11233  0.92269  1
 O  O7  1  0.49646  0.88767  0.07731  1
 O  O8  1  0.50354  0.38767  0.42269  1
 Pb  Pb1  1  0.25000  0.70953  0.05637  1
 Pb  Pb2  1  0.75000  0.29047  0.94363  1
 Pb  Pb3  1  0.75000  0.20953  0.44363  1
 Pb  Pb4  1  0.25000  0.79047  0.55637  1
 Pb  Pb5  1  0.25000  0.13390  0.78736  1
 Pb  Pb6  1  0.75000  0.86610  0.21264  1
 Pb  Pb7  1  0.75000  0.63390  0.71264  1
 Pb  Pb8  1  0.25000  0.36610  0.28736  1
 Pb  Pb9  1  0.25000  0.42258  0.57930  1
 Pb  Pb10  1  0.75000  0.57742  0.42070  1
 Pb  Pb11  1  0.75000  0.92258  0.92070  1
 Pb  Pb12  1  0.25000  0.07742  0.07930  1
