CIF file written using JARVIS-Tools package.
data_KSnN
_symmetry_space_group_name_H-M  'P6_3mc'
_cell_length_a       3.45264
_cell_length_b       3.45259
_cell_length_c       12.0589
_cell_angle_alpha    90
_cell_angle_beta     90
_cell_angle_gamma    120.001

_symmetry_Int_Tables_number  186
_chemical_formula_structural  KSnN
_chemical_formula_sum  K2Sn2N2
_cell_volume  124.48984749052633
_cell_formula_units_Z  2
loop_
  _symmetry_equiv_pos_site_id
 _symmetry_equiv_pos_as_xyz
 1  'x, y, z'
loop_
 _atom_site_type_symbol
 _atom_site_label
 _atom_site_symmetry_multiplicity
 _atom_site_fract_x
 _atom_site_fract_y
 _atom_site_fract_z
 _atom_site_fract_occupancy
 K  K1  1  0.66667  0.33333  0.74847  1
 K  K2  1  0.33333  0.66667  0.24847  1
 N  N1  1  0.33333  0.66666  0.59214  1
 N  N2  1  0.66667  0.33334  0.09214  1
 Sn  Sn1  1  1.00000  1.00000  0.50403  1
 Sn  Sn2  1  0.00000  0.00000  0.00403  1
