CIF file written using JARVIS-Tools package.
data_Al4C3
_symmetry_space_group_name_H-M  'R-3m'
_cell_length_a       8.60887
_cell_length_b       8.60887
_cell_length_c       8.60887
_cell_angle_alpha    22.4732
_cell_angle_beta     22.4732
_cell_angle_gamma    22.4732

_symmetry_Int_Tables_number  166
_chemical_formula_structural  Al4C3
_chemical_formula_sum  Al4C3
_cell_volume  81.77067965568982
_cell_formula_units_Z  1
loop_
  _symmetry_equiv_pos_site_id
 _symmetry_equiv_pos_as_xyz
 1  'x, y, z'
loop_
 _atom_site_type_symbol
 _atom_site_label
 _atom_site_symmetry_multiplicity
 _atom_site_fract_x
 _atom_site_fract_y
 _atom_site_fract_z
 _atom_site_fract_occupancy
 Al  Al1  1  0.87007  0.87007  0.87007  1
 Al  Al2  1  0.12993  0.12993  0.12993  1
 Al  Al3  1  0.70648  0.70648  0.70648  1
 Al  Al4  1  0.29352  0.29352  0.29352  1
 C  C1  1  0.78318  0.78318  0.78318  1
 C  C2  1  0.21682  0.21682  0.21682  1
 C  C3  1  0.00000  0.00000  0.00000  1
