CIF file written using JARVIS-Tools package.
data_K2Ca3Si3O10
_symmetry_space_group_name_H-M  'C2/c'
_cell_length_a       7.42643
_cell_length_b       7.42643
_cell_length_c       9.86896
_cell_angle_alpha    109.465
_cell_angle_beta     109.465
_cell_angle_gamma    91.1017

_symmetry_Int_Tables_number  15
_chemical_formula_structural  K2Ca3Si3O10
_chemical_formula_sum  K4Ca6Si6O20
_cell_volume  478.62739210874685
_cell_formula_units_Z  2
loop_
  _symmetry_equiv_pos_site_id
 _symmetry_equiv_pos_as_xyz
 1  'x, y, z'
loop_
 _atom_site_type_symbol
 _atom_site_label
 _atom_site_symmetry_multiplicity
 _atom_site_fract_x
 _atom_site_fract_y
 _atom_site_fract_z
 _atom_site_fract_occupancy
 Ca  Ca1  1  0.36840  0.63160  0.75000  1
 Ca  Ca2  1  0.63160  0.36840  0.25000  1
 Ca  Ca3  1  0.22748  0.99064  0.98566  1
 Ca  Ca4  1  0.00936  0.77252  0.51434  1
 Ca  Ca5  1  0.77252  0.00936  0.01434  1
 Ca  Ca6  1  0.99064  0.22748  0.48566  1
 K  K1  1  0.23050  0.47887  0.98885  1
 K  K2  1  0.52113  0.76950  0.51115  1
 K  K3  1  0.76950  0.52113  0.01115  1
 K  K4  1  0.47887  0.23050  0.48885  1
 O  O1  1  0.21401  0.50061  0.47990  1
 O  O2  1  0.30951  0.30963  0.72899  1
 O  O3  1  0.61278  0.12215  0.73742  1
 O  O4  1  0.87785  0.38722  0.76258  1
 O  O5  1  0.38722  0.87785  0.26258  1
 O  O6  1  0.69037  0.69049  0.77101  1
 O  O7  1  0.69049  0.69037  0.27101  1
 O  O8  1  0.30963  0.30951  0.22899  1
 O  O9  1  0.85703  0.02622  0.59012  1
 O  O10  1  0.50061  0.21401  0.97990  1
 O  O11  1  0.12215  0.61278  0.23742  1
 O  O12  1  0.78599  0.49939  0.52010  1
 O  O13  1  0.14297  0.97378  0.40988  1
 O  O14  1  0.30077  0.92997  0.72252  1
 O  O15  1  0.92997  0.30077  0.22252  1
 O  O16  1  0.69923  0.07003  0.27748  1
 O  O17  1  0.49939  0.78599  0.02010  1
 O  O18  1  0.02622  0.85703  0.09012  1
 O  O19  1  0.07003  0.69923  0.77748  1
 O  O20  1  0.97378  0.14297  0.90988  1
 Si  Si1  1  0.58229  0.85330  0.21059  1
 Si  Si2  1  0.14670  0.41771  0.28941  1
 Si  Si3  1  0.41771  0.14670  0.78941  1
 Si  Si4  1  0.85330  0.58229  0.71059  1
 Si  Si5  1  0.15967  0.84033  0.25000  1
 Si  Si6  1  0.84033  0.15967  0.75000  1
