CIF file written using JARVIS-Tools package.
data_Al3Pb5F19
_symmetry_space_group_name_H-M  'P-1'
_cell_length_a       7.26084
_cell_length_b       10.6757
_cell_length_c       10.7093
_cell_angle_alpha    83.9015
_cell_angle_beta     70.778
_cell_angle_gamma    70.6738

_symmetry_Int_Tables_number  2
_chemical_formula_structural  Al3Pb5F19
_chemical_formula_sum  Al6Pb0F38
_cell_volume  739.6697898306736
_cell_formula_units_Z  2
loop_
  _symmetry_equiv_pos_site_id
 _symmetry_equiv_pos_as_xyz
 1  'x, y, z'
loop_
 _atom_site_type_symbol
 _atom_site_label
 _atom_site_symmetry_multiplicity
 _atom_site_fract_x
 _atom_site_fract_y
 _atom_site_fract_z
 _atom_site_fract_occupancy
 Al  Al1  1  0.24645  0.99796  0.00364  1
 Al  Al2  1  0.67297  0.48359  0.16822  1
 Al  Al3  1  0.83798  0.83351  0.48172  1
 Al  Al4  1  0.32703  0.51641  0.83178  1
 Al  Al5  1  0.75355  0.00204  0.99636  1
 Al  Al6  1  0.16202  0.16649  0.51828  1
 F  F1  1  0.99488  0.76877  0.59417  1
 F  F2  1  0.40801  0.60084  0.22165  1
 F  F3  1  0.36821  0.56292  0.65679  1
 F  F4  1  0.20400  0.16495  0.93939  1
 F  F5  1  0.63179  0.43708  0.34321  1
 F  F6  1  0.42618  0.70996  0.45822  1
 F  F7  1  0.07107  0.83215  0.34545  1
 F  F8  1  0.75490  0.61849  0.19686  1
 F  F9  1  0.89490  0.66206  0.43179  1
 F  F10  1  0.29421  0.47469  0.00536  1
 F  F11  1  0.06911  0.63238  0.87479  1
 F  F12  1  0.79600  0.83505  0.06061  1
 F  F13  1  0.58149  0.34660  0.15673  1
 F  F14  1  0.63219  0.06656  0.16255  1
 F  F15  1  0.70579  0.52531  0.99464  1
 F  F16  1  0.30843  0.82953  0.06617  1
 F  F17  1  0.78225  0.00484  0.52585  1
 F  F18  1  0.10510  0.33794  0.56821  1
 F  F19  1  0.57382  0.29004  0.54178  1
 F  F20  1  0.36781  0.93344  0.83745  1
 F  F21  1  0.12397  0.45984  0.29489  1
 F  F22  1  0.69157  0.17047  0.93383  1
 F  F23  1  0.50000  -0.00000  -0.00000  1
 F  F24  1  0.69093  0.89325  0.36749  1
 F  F25  1  0.59199  0.39916  0.77835  1
 F  F26  1  0.37854  0.18827  0.38260  1
 F  F27  1  0.21775  0.99516  0.47415  1
 F  F28  1  0.62146  0.81173  0.61740  1
 F  F29  1  0.87603  0.54016  0.70511  1
 F  F30  1  0.00000  0.00000  0.00000  1
 F  F31  1  0.85807  0.93875  0.82774  1
 F  F32  1  0.93089  0.36762  0.12521  1
 F  F33  1  0.41851  0.65340  0.84327  1
 F  F34  1  0.24510  0.38151  0.80314  1
 F  F35  1  0.00512  0.23123  0.40583  1
 F  F36  1  0.14193  0.06125  0.17226  1
 F  F37  1  0.92893  0.16785  0.65455  1
 F  F38  1  0.30907  0.10675  0.63251  1
 Pb  Pb1  1  0.74697  0.15622  0.32747  1
 Pb  Pb2  1  0.75928  0.46335  0.52359  1
 Pb  Pb3  1  0.71660  0.72437  0.84288  1
 Pb  Pb4  1  0.25303  0.84378  0.67253  1
 Pb  Pb5  1  0.44128  0.84664  0.27391  1
 Pb  Pb6  1  0.28340  0.27563  0.15712  1
 Pb  Pb7  1  0.92240  0.32701  0.84407  1
 Pb  Pb8  1  0.55872  0.15336  0.72609  1
 Pb  Pb9  1  0.24072  0.53665  0.47641  1
 Pb  Pb10  1  0.07760  0.67299  0.15593  1
