CIF file written using JARVIS-Tools package.
data_Al5Mo
_symmetry_space_group_name_H-M  'P6_322'
_cell_length_a       4.93529
_cell_length_b       4.9353
_cell_length_c       8.89875
_cell_angle_alpha    90
_cell_angle_beta     90
_cell_angle_gamma    120

_symmetry_Int_Tables_number  182
_chemical_formula_structural  Al5Mo
_chemical_formula_sum  Al0Mo2
_cell_volume  187.70913104668512
_cell_formula_units_Z  2
loop_
  _symmetry_equiv_pos_site_id
 _symmetry_equiv_pos_as_xyz
 1  'x, y, z'
loop_
 _atom_site_type_symbol
 _atom_site_label
 _atom_site_symmetry_multiplicity
 _atom_site_fract_x
 _atom_site_fract_y
 _atom_site_fract_z
 _atom_site_fract_occupancy
 Al  Al1  1  0.66130  0.00000  0.25000  1
 Al  Al2  1  0.00000  0.66130  0.25000  1
 Al  Al3  1  0.66130  0.66130  0.75000  1
 Al  Al4  1  0.00000  0.00000  0.00000  1
 Al  Al5  1  0.33870  -0.00000  0.75000  1
 Al  Al6  1  0.66667  0.33333  0.50000  1
 Al  Al7  1  0.33870  0.33870  0.25000  1
 Al  Al8  1  0.00000  0.00000  0.50000  1
 Al  Al9  1  0.33333  0.66667  0.00000  1
 Al  Al10  1  -0.00000  0.33870  0.75000  1
 Mo  Mo1  1  0.33333  0.66667  0.50000  1
 Mo  Mo2  1  0.66667  0.33333  0.00000  1
