CIF file written using JARVIS-Tools package.
data_AlVFe2
_symmetry_space_group_name_H-M  'P4/mmm'
_cell_length_a       2.85542
_cell_length_b       2.85542
_cell_length_c       5.6898
_cell_angle_alpha    90
_cell_angle_beta     90
_cell_angle_gamma    90

_symmetry_Int_Tables_number  123
_chemical_formula_structural  AlVFe2
_chemical_formula_sum  AlVFe2
_cell_volume  46.391226680722994
_cell_formula_units_Z  1
loop_
  _symmetry_equiv_pos_site_id
 _symmetry_equiv_pos_as_xyz
 1  'x, y, z'
loop_
 _atom_site_type_symbol
 _atom_site_label
 _atom_site_symmetry_multiplicity
 _atom_site_fract_x
 _atom_site_fract_y
 _atom_site_fract_z
 _atom_site_fract_occupancy
 Al  Al1  1  0.50000  0.50000  0.00000  1
 Fe  Fe1  1  0.00000  0.00000  0.74000  1
 Fe  Fe2  1  0.00000  0.00000  0.26000  1
 V  V1  1  0.50000  0.50000  0.50000  1
