CIF file written using JARVIS-Tools package.
data_Ho5Co2Bi
_symmetry_space_group_name_H-M  'I4/mcm'
_cell_length_a       7.5161
_cell_length_b       7.5161
_cell_length_c       8.6587
_cell_angle_alpha    115.723
_cell_angle_beta     115.723
_cell_angle_gamma    90

_symmetry_Int_Tables_number  140
_chemical_formula_structural  Ho5Co2Bi
_chemical_formula_sum  Ho0Co4Bi2
_cell_volume  386.1625239621439
_cell_formula_units_Z  2
loop_
  _symmetry_equiv_pos_site_id
 _symmetry_equiv_pos_as_xyz
 1  'x, y, z'
loop_
 _atom_site_type_symbol
 _atom_site_label
 _atom_site_symmetry_multiplicity
 _atom_site_fract_x
 _atom_site_fract_y
 _atom_site_fract_z
 _atom_site_fract_occupancy
 Bi  Bi1  1  0.25000  0.25000  0.50000  1
 Bi  Bi2  1  0.75000  0.75000  0.50000  1
 Co  Co1  1  0.63951  0.13951  -0.00000  1
 Co  Co2  1  0.36049  0.86049  0.00000  1
 Co  Co3  1  0.86049  0.63951  0.00000  1
 Co  Co4  1  0.13951  0.36049  -0.00000  1
 Ho  Ho1  1  0.52774  0.71485  0.74259  1
 Ho  Ho2  1  0.97226  0.47226  0.25741  1
 Ho  Ho3  1  0.28515  0.78515  0.25741  1
 Ho  Ho4  1  0.02774  0.52774  0.74259  1
 Ho  Ho5  1  0.00000  0.00000  0.00000  1
 Ho  Ho6  1  0.21485  0.02774  0.74259  1
 Ho  Ho7  1  0.47226  0.28515  0.25741  1
 Ho  Ho8  1  0.71485  0.21485  0.74259  1
 Ho  Ho9  1  0.78515  0.97226  0.25741  1
 Ho  Ho10  1  0.50000  0.50000  0.00000  1
