CIF file written using JARVIS-Tools package.
data_LiVF4
_symmetry_space_group_name_H-M  'I4_1md'
_cell_length_a       5.54463
_cell_length_b       5.54463
_cell_length_c       5.54463
_cell_angle_alpha    107.496
_cell_angle_beta     107.496
_cell_angle_gamma    113.498

_symmetry_Int_Tables_number  109
_chemical_formula_structural  LiVF4
_chemical_formula_sum  Li2V2F8
_cell_volume  130.72920308372753
_cell_formula_units_Z  2
loop_
  _symmetry_equiv_pos_site_id
 _symmetry_equiv_pos_as_xyz
 1  'x, y, z'
loop_
 _atom_site_type_symbol
 _atom_site_label
 _atom_site_symmetry_multiplicity
 _atom_site_fract_x
 _atom_site_fract_y
 _atom_site_fract_z
 _atom_site_fract_occupancy
 F  F1  1  0.71289  0.01273  0.70016  1
 F  F2  1  0.31257  0.01273  0.29984  1
 F  F3  1  0.78789  0.48802  0.29987  1
 F  F4  1  0.23802  0.43815  0.20013  1
 F  F5  1  0.76273  0.96289  0.20016  1
 F  F6  1  0.76273  0.56257  0.79984  1
 F  F7  1  0.23802  0.03789  0.79987  1
 F  F8  1  0.18815  0.48802  0.70013  1
 Li  Li1  1  0.48772  0.48772  0.00000  1
 Li  Li2  1  0.23772  0.73772  0.50000  1
 V  V1  1  0.01077  0.01077  -0.00000  1
 V  V2  1  0.76077  0.26077  0.50000  1
