CIF file written using JARVIS-Tools package.
data_UTeP
_symmetry_space_group_name_H-M  'Cmmm'
_cell_length_a       10.2956
_cell_length_b       10.2956
_cell_length_c       4.0024
_cell_angle_alpha    90
_cell_angle_beta     90
_cell_angle_gamma    157.558

_symmetry_Int_Tables_number  65
_chemical_formula_structural  UTeP
_chemical_formula_sum  U2Te2P2
_cell_volume  161.95906790741367
_cell_formula_units_Z  2
loop_
  _symmetry_equiv_pos_site_id
 _symmetry_equiv_pos_as_xyz
 1  'x, y, z'
loop_
 _atom_site_type_symbol
 _atom_site_label
 _atom_site_symmetry_multiplicity
 _atom_site_fract_x
 _atom_site_fract_y
 _atom_site_fract_z
 _atom_site_fract_occupancy
 P  P1  1  0.50000  0.50000  0.00000  1
 P  P2  1  0.00000  0.00000  0.50000  1
 Te  Te1  1  0.83678  0.16322  0.00000  1
 Te  Te2  1  0.16322  0.83678  0.00000  1
 U  U1  1  0.59379  0.40621  0.50000  1
 U  U2  1  0.40621  0.59379  0.50000  1
