CIF file written using JARVIS-Tools package.
data_InCuSnSe4
_symmetry_space_group_name_H-M  'I-4'
_cell_length_a       7.03377
_cell_length_b       7.03377
_cell_length_c       7.03377
_cell_angle_alpha    131.679
_cell_angle_beta     131.679
_cell_angle_gamma    70.737

_symmetry_Int_Tables_number  82
_chemical_formula_structural  InCuSnSe4
_chemical_formula_sum  InCuSnSe4
_cell_volume  190.14978489380303
_cell_formula_units_Z  1
loop_
  _symmetry_equiv_pos_site_id
 _symmetry_equiv_pos_as_xyz
 1  'x, y, z'
loop_
 _atom_site_type_symbol
 _atom_site_label
 _atom_site_symmetry_multiplicity
 _atom_site_fract_x
 _atom_site_fract_y
 _atom_site_fract_z
 _atom_site_fract_occupancy
 Cu  Cu1  1  0.25000  0.75000  0.50000  1
 In  In1  1  0.75000  0.25000  0.50000  1
 Se  Se1  1  0.64034  0.67088  0.54788  1
 Se  Se2  1  0.12300  0.09246  0.45212  1
 Se  Se3  1  0.90754  0.35966  0.03054  1
 Se  Se4  1  0.32912  0.87700  0.96946  1
 Sn  Sn1  1  0.50000  0.50000  0.00000  1
