CIF file written using JARVIS-Tools package.
data_CaCo2O4
_symmetry_space_group_name_H-M  'Cmcm'
_cell_length_a       2.97485
_cell_length_b       5.00252
_cell_length_c       9.56944
_cell_angle_alpha    90
_cell_angle_beta     90
_cell_angle_gamma    107.298

_symmetry_Int_Tables_number  63
_chemical_formula_structural  CaCo2O4
_chemical_formula_sum  Ca2Co4O8
_cell_volume  135.96899640574998
_cell_formula_units_Z  2
loop_
  _symmetry_equiv_pos_site_id
 _symmetry_equiv_pos_as_xyz
 1  'x, y, z'
loop_
 _atom_site_type_symbol
 _atom_site_label
 _atom_site_symmetry_multiplicity
 _atom_site_fract_x
 _atom_site_fract_y
 _atom_site_fract_z
 _atom_site_fract_occupancy
 Ca  Ca1  1  0.39161  0.78323  0.75000  1
 Ca  Ca2  1  0.60839  0.21677  0.25000  1
 Co  Co1  1  0.85978  0.71956  0.06992  1
 Co  Co2  1  0.14022  0.28044  0.93008  1
 Co  Co3  1  0.85978  0.71956  0.43008  1
 Co  Co4  1  0.14022  0.28044  0.56992  1
 O  O1  1  0.23692  0.47385  0.39546  1
 O  O2  1  0.76308  0.52615  0.60454  1
 O  O3  1  0.76308  0.52615  0.89546  1
 O  O4  1  0.23692  0.47385  0.10454  1
 O  O5  1  0.93687  0.87375  0.25000  1
 O  O6  1  0.06313  0.12625  0.75000  1
 O  O7  1  0.50000  0.00000  0.00000  1
 O  O8  1  0.50000  0.00000  0.50000  1
