CIF file written using JARVIS-Tools package.
data_Ag3BO3
_symmetry_space_group_name_H-M  'R-3c'
_cell_length_a       7.31815
_cell_length_b       7.31815
_cell_length_c       7.31815
_cell_angle_alpha    85.332
_cell_angle_beta     85.332
_cell_angle_gamma    85.332

_symmetry_Int_Tables_number  167
_chemical_formula_structural  Ag3BO3
_chemical_formula_sum  Ag2B4O2
_cell_volume  388.22527888421
_cell_formula_units_Z  4
loop_
  _symmetry_equiv_pos_site_id
 _symmetry_equiv_pos_as_xyz
 1  'x, y, z'
loop_
 _atom_site_type_symbol
 _atom_site_label
 _atom_site_symmetry_multiplicity
 _atom_site_fract_x
 _atom_site_fract_y
 _atom_site_fract_z
 _atom_site_fract_occupancy
 Ag  Ag1  1  0.37117  0.87425  0.38322  1
 Ag  Ag2  1  0.88322  0.37425  0.87117  1
 Ag  Ag3  1  0.87117  0.88322  0.37425  1
 Ag  Ag4  1  0.61678  0.62883  0.12575  1
 Ag  Ag5  1  0.62575  0.12883  0.11678  1
 Ag  Ag6  1  0.87425  0.38322  0.37117  1
 Ag  Ag7  1  0.12575  0.61678  0.62883  1
 Ag  Ag8  1  0.62883  0.12575  0.61678  1
 Ag  Ag9  1  0.11678  0.62575  0.12883  1
 Ag  Ag10  1  0.37425  0.87117  0.88322  1
 Ag  Ag11  1  0.12883  0.11678  0.62575  1
 Ag  Ag12  1  0.38322  0.37117  0.87425  1
 B  B1  1  0.62535  0.62535  0.62535  1
 B  B2  1  0.37465  0.37465  0.37465  1
 B  B3  1  0.12535  0.12535  0.12535  1
 B  B4  1  0.87465  0.87465  0.87465  1
 O  O1  1  0.98190  0.13230  0.26063  1
 O  O2  1  0.26063  0.98190  0.13230  1
 O  O3  1  0.76063  0.63230  0.48190  1
 O  O4  1  0.23937  0.36770  0.51810  1
 O  O5  1  0.73937  0.01810  0.86770  1
 O  O6  1  0.51810  0.23937  0.36770  1
 O  O7  1  0.48190  0.76063  0.63230  1
 O  O8  1  0.86770  0.73937  0.01810  1
 O  O9  1  0.36770  0.51810  0.23937  1
 O  O10  1  0.01810  0.86770  0.73937  1
 O  O11  1  0.63230  0.48190  0.76063  1
 O  O12  1  0.13230  0.26063  0.98190  1
