CIF file written using JARVIS-Tools package.
data_Rb2SiAs2
_symmetry_space_group_name_H-M  'Ibam'
_cell_length_a       6.45563
_cell_length_b       7.25429
_cell_length_c       8.4429
_cell_angle_alpha    115.443
_cell_angle_beta     112.477
_cell_angle_gamma    90

_symmetry_Int_Tables_number  72
_chemical_formula_structural  Rb2SiAs2
_chemical_formula_sum  Rb4Si2As4
_cell_volume  323.46504757807156
_cell_formula_units_Z  2
loop_
  _symmetry_equiv_pos_site_id
 _symmetry_equiv_pos_as_xyz
 1  'x, y, z'
loop_
 _atom_site_type_symbol
 _atom_site_label
 _atom_site_symmetry_multiplicity
 _atom_site_fract_x
 _atom_site_fract_y
 _atom_site_fract_z
 _atom_site_fract_occupancy
 As  As1  1  0.40190  0.56490  0.80379  1
 As  As2  1  0.59810  0.43510  0.19621  1
 As  As3  1  0.90190  0.23889  0.80379  1
 As  As4  1  0.09810  0.76111  0.19621  1
 Rb  Rb1  1  0.64486  0.98380  0.28971  1
 Rb  Rb2  1  0.35514  0.01620  0.71029  1
 Rb  Rb3  1  0.85514  0.69409  0.71029  1
 Rb  Rb4  1  0.14486  0.30591  0.28971  1
 Si  Si1  1  0.75000  0.50000  0.00000  1
 Si  Si2  1  0.25000  0.50000  0.00000  1
