CIF file written using JARVIS-Tools package.
data_Mn2ZnS4
_symmetry_space_group_name_H-M  'Fd-3m'
_cell_length_a       7.08652
_cell_length_b       7.08652
_cell_length_c       7.08682
_cell_angle_alpha    119.999
_cell_angle_beta     119.999
_cell_angle_gamma    89.9999

_symmetry_Int_Tables_number  227
_chemical_formula_structural  Mn2ZnS4
_chemical_formula_sum  Mn4Zn2S8
_cell_volume  251.66417580837256
_cell_formula_units_Z  2
loop_
  _symmetry_equiv_pos_site_id
 _symmetry_equiv_pos_as_xyz
 1  'x, y, z'
loop_
 _atom_site_type_symbol
 _atom_site_label
 _atom_site_symmetry_multiplicity
 _atom_site_fract_x
 _atom_site_fract_y
 _atom_site_fract_z
 _atom_site_fract_occupancy
 Mn  Mn1  1  -0.00000  -0.00000  0.50000  1
 Mn  Mn2  1  -0.00000  0.50000  0.00000  1
 Mn  Mn3  1  0.50000  -0.00000  0.50000  1
 Mn  Mn4  1  0.00000  0.00000  0.00000  1
 S  S1  1  0.75940  0.77826  0.51881  1
 S  S2  1  0.75946  0.24060  0.98119  1
 S  S3  1  0.22174  0.24060  0.98119  1
 S  S4  1  0.24060  0.22174  0.48119  1
 S  S5  1  0.24060  0.75946  0.48119  1
 S  S6  1  0.24054  0.75940  0.01881  1
 S  S7  1  0.75940  0.24054  0.51881  1
 S  S8  1  0.77826  0.75940  0.01881  1
 Zn  Zn1  1  0.37500  0.62500  0.75000  1
 Zn  Zn2  1  0.62500  0.37500  0.25000  1
