CIF file written using JARVIS-Tools package.
data_YbKC2O6
_symmetry_space_group_name_H-M  'C2/c'
_cell_length_a       6.44262
_cell_length_b       6.44261
_cell_length_c       6.84251
_cell_angle_alpha    102.368
_cell_angle_beta     102.368
_cell_angle_gamma    99.3669

_symmetry_Int_Tables_number  15
_chemical_formula_structural  YbKC2O6
_chemical_formula_sum  Yb2K2C4O2
_cell_volume  264.4268320008377
_cell_formula_units_Z  2
loop_
  _symmetry_equiv_pos_site_id
 _symmetry_equiv_pos_as_xyz
 1  'x, y, z'
loop_
 _atom_site_type_symbol
 _atom_site_label
 _atom_site_symmetry_multiplicity
 _atom_site_fract_x
 _atom_site_fract_y
 _atom_site_fract_z
 _atom_site_fract_occupancy
 C  C1  1  0.13995  0.39119  0.24450  1
 C  C2  1  0.39119  0.13995  0.74450  1
 C  C3  1  0.86005  0.60881  0.75550  1
 C  C4  1  0.60881  0.86005  0.25550  1
 K  K1  1  0.13046  0.86954  0.25000  1
 K  K2  1  0.86954  0.13046  0.75000  1
 O  O1  1  0.58801  0.05772  0.28796  1
 O  O2  1  0.29011  0.52780  0.39485  1
 O  O3  1  0.47220  0.70989  0.10515  1
 O  O4  1  0.70989  0.47220  0.60515  1
 O  O5  1  0.52780  0.29011  0.89485  1
 O  O6  1  0.19789  0.24122  0.12521  1
 O  O7  1  0.80211  0.75878  0.87479  1
 O  O8  1  0.24122  0.19789  0.62521  1
 O  O9  1  0.94228  0.41199  0.21204  1
 O  O10  1  0.41199  0.94228  0.71204  1
 O  O11  1  0.05772  0.58801  0.78796  1
 O  O12  1  0.75878  0.80211  0.37479  1
 Yb  Yb1  1  0.40744  0.59256  0.75000  1
 Yb  Yb2  1  0.59256  0.40744  0.25000  1
