CIF file written using JARVIS-Tools package.
data_PrAgGe
_symmetry_space_group_name_H-M  'P6_3mc'
_cell_length_a       4.56935
_cell_length_b       4.56935
_cell_length_c       7.7177
_cell_angle_alpha    90
_cell_angle_beta     90
_cell_angle_gamma    120

_symmetry_Int_Tables_number  186
_chemical_formula_structural  PrAgGe
_chemical_formula_sum  Pr2Ag2Ge2
_cell_volume  139.54934052239054
_cell_formula_units_Z  2
loop_
  _symmetry_equiv_pos_site_id
 _symmetry_equiv_pos_as_xyz
 1  'x, y, z'
loop_
 _atom_site_type_symbol
 _atom_site_label
 _atom_site_symmetry_multiplicity
 _atom_site_fract_x
 _atom_site_fract_y
 _atom_site_fract_z
 _atom_site_fract_occupancy
 Ag  Ag1  1  0.66667  0.33333  0.28488  1
 Ag  Ag2  1  0.33333  0.66667  0.78488  1
 Ge  Ge1  1  0.66667  0.33333  0.72513  1
 Ge  Ge2  1  0.33333  0.66667  0.22513  1
 Pr  Pr1  1  0.00000  0.00000  0.01279  1
 Pr  Pr2  1  0.00000  0.00000  0.51279  1
