CIF file written using JARVIS-Tools package.
data_Ba2NdBiO6
_symmetry_space_group_name_H-M  'C2/m'
_cell_length_a       6.21456
_cell_length_b       6.21456
_cell_length_c       6.25246
_cell_angle_alpha    90.3927
_cell_angle_beta     119.418
_cell_angle_gamma    119.929

_symmetry_Int_Tables_number  12
_chemical_formula_structural  Ba2NdBiO6
_chemical_formula_sum  Ba2NdBiO6
_cell_volume  171.84018318437248
_cell_formula_units_Z  1
loop_
  _symmetry_equiv_pos_site_id
 _symmetry_equiv_pos_as_xyz
 1  'x, y, z'
loop_
 _atom_site_type_symbol
 _atom_site_label
 _atom_site_symmetry_multiplicity
 _atom_site_fract_x
 _atom_site_fract_y
 _atom_site_fract_z
 _atom_site_fract_occupancy
 Ba  Ba1  1  0.00737  0.75174  0.75911  1
 Ba  Ba2  1  0.99263  0.24826  0.24089  1
 Bi  Bi1  1  0.50000  0.50000  0.00000  1
 Nd  Nd1  1  0.50000  -0.00000  0.50000  1
 O  O1  1  0.42560  0.26132  0.68693  1
 O  O2  1  0.57440  0.73868  0.31307  1
 O  O3  1  0.02019  0.29914  0.80333  1
 O  O4  1  0.97981  0.70086  0.19667  1
 O  O5  1  0.49581  0.21686  0.19668  1
 O  O6  1  0.50419  0.78314  0.80332  1
