CIF file written using JARVIS-Tools package.
data_Mn2InSnPd4
_symmetry_space_group_name_H-M  'R-3m'
_cell_length_a       7.84239
_cell_length_b       7.84239
_cell_length_c       7.84239
_cell_angle_alpha    33.5556
_cell_angle_beta     33.5556
_cell_angle_gamma    33.5556

_symmetry_Int_Tables_number  166
_chemical_formula_structural  Mn2InSnPd4
_chemical_formula_sum  Mn2InSnPd4
_cell_volume  131.26177210724344
_cell_formula_units_Z  1
loop_
  _symmetry_equiv_pos_site_id
 _symmetry_equiv_pos_as_xyz
 1  'x, y, z'
loop_
 _atom_site_type_symbol
 _atom_site_label
 _atom_site_symmetry_multiplicity
 _atom_site_fract_x
 _atom_site_fract_y
 _atom_site_fract_z
 _atom_site_fract_occupancy
 In  In1  1  0.00000  0.00000  0.00000  1
 Mn  Mn1  1  0.25129  0.25129  0.25129  1
 Mn  Mn2  1  0.74871  0.74871  0.74871  1
 Pd  Pd1  1  0.62421  0.62421  0.62421  1
 Pd  Pd2  1  0.12580  0.12580  0.12580  1
 Pd  Pd3  1  0.87420  0.87420  0.87420  1
 Pd  Pd4  1  0.37579  0.37579  0.37579  1
 Sn  Sn1  1  0.50000  0.50000  0.50000  1
