CIF file written using JARVIS-Tools package.
data_Cu3PS4
_symmetry_space_group_name_H-M  'Pmn2_1'
_cell_length_a       6.10121
_cell_length_b       6.35044
_cell_length_c       7.28554
_cell_angle_alpha    90
_cell_angle_beta     90
_cell_angle_gamma    90

_symmetry_Int_Tables_number  31
_chemical_formula_structural  Cu3PS4
_chemical_formula_sum  Cu6P2S8
_cell_volume  282.28134263868054
_cell_formula_units_Z  2
loop_
  _symmetry_equiv_pos_site_id
 _symmetry_equiv_pos_as_xyz
 1  'x, y, z'
loop_
 _atom_site_type_symbol
 _atom_site_label
 _atom_site_symmetry_multiplicity
 _atom_site_fract_x
 _atom_site_fract_y
 _atom_site_fract_z
 _atom_site_fract_occupancy
 Cu  Cu1  1  0.91263  0.82432  0.25327  1
 Cu  Cu2  1  0.41263  0.17568  0.24673  1
 Cu  Cu3  1  0.41263  0.17568  0.75327  1
 Cu  Cu4  1  0.91263  0.82432  0.74673  1
 Cu  Cu5  1  0.40405  0.65122  0.50000  1
 Cu  Cu6  1  0.90405  0.34878  0.00000  1
 P  P1  1  0.40166  0.67456  0.00000  1
 P  P2  1  0.90166  0.32544  0.50000  1
 S  S1  1  0.28653  0.83220  0.76291  1
 S  S2  1  0.78653  0.16780  0.73709  1
 S  S3  1  0.78109  0.63482  0.50000  1
 S  S4  1  0.28109  0.36518  0.00000  1
 S  S5  1  0.78653  0.16780  0.26291  1
 S  S6  1  0.28653  0.83220  0.23709  1
 S  S7  1  0.74564  0.67907  0.00000  1
 S  S8  1  0.24564  0.32093  0.50000  1
