CIF file written using JARVIS-Tools package.
data_Mn5Si3
_symmetry_space_group_name_H-M  'P6_3/mcm'
_cell_length_a       6.74111
_cell_length_b       6.74111
_cell_length_c       4.60132
_cell_angle_alpha    90
_cell_angle_beta     90
_cell_angle_gamma    120

_symmetry_Int_Tables_number  193
_chemical_formula_structural  Mn5Si3
_chemical_formula_sum  Mn0Si6
_cell_volume  181.08174720408303
_cell_formula_units_Z  2
loop_
  _symmetry_equiv_pos_site_id
 _symmetry_equiv_pos_as_xyz
 1  'x, y, z'
loop_
 _atom_site_type_symbol
 _atom_site_label
 _atom_site_symmetry_multiplicity
 _atom_site_fract_x
 _atom_site_fract_y
 _atom_site_fract_z
 _atom_site_fract_occupancy
 Mn  Mn1  1  0.23560  0.23560  0.75000  1
 Mn  Mn2  1  0.76440  0.76440  0.25000  1
 Mn  Mn3  1  0.23560  -0.00000  0.25000  1
 Mn  Mn4  1  0.00000  0.76440  0.75000  1
 Mn  Mn5  1  0.76440  0.00000  0.75000  1
 Mn  Mn6  1  -0.00000  0.23560  0.25000  1
 Mn  Mn7  1  0.33333  0.66667  0.50000  1
 Mn  Mn8  1  0.66667  0.33333  0.00000  1
 Mn  Mn9  1  0.66667  0.33333  0.50000  1
 Mn  Mn10  1  0.33333  0.66667  0.00000  1
 Si  Si1  1  -0.00000  0.39292  0.75000  1
 Si  Si2  1  0.60708  0.00000  0.25000  1
 Si  Si3  1  0.39292  0.39292  0.25000  1
 Si  Si4  1  0.60708  0.60708  0.75000  1
 Si  Si5  1  0.39292  -0.00000  0.75000  1
 Si  Si6  1  0.00000  0.60708  0.25000  1
