CIF file written using JARVIS-Tools package.
data_NaTlO
_symmetry_space_group_name_H-M  'P6_3mc'
_cell_length_a       3.52174
_cell_length_b       3.52174
_cell_length_c       11.3996
_cell_angle_alpha    90
_cell_angle_beta     90
_cell_angle_gamma    120

_symmetry_Int_Tables_number  186
_chemical_formula_structural  NaTlO
_chemical_formula_sum  Na2Tl2O2
_cell_volume  122.44328121123344
_cell_formula_units_Z  2
loop_
  _symmetry_equiv_pos_site_id
 _symmetry_equiv_pos_as_xyz
 1  'x, y, z'
loop_
 _atom_site_type_symbol
 _atom_site_label
 _atom_site_symmetry_multiplicity
 _atom_site_fract_x
 _atom_site_fract_y
 _atom_site_fract_z
 _atom_site_fract_occupancy
 Na  Na1  1  0.33333  0.66667  0.39445  1
 Na  Na2  1  0.66667  0.33333  0.89445  1
 O  O1  1  0.00000  0.00000  0.48910  1
 O  O2  1  0.00000  0.00000  0.98910  1
 Tl  Tl1  1  0.66667  0.33333  0.61646  1
 Tl  Tl2  1  0.33333  0.66667  0.11646  1
