CIF file written using JARVIS-Tools package.
data_ZnCrO4
_symmetry_space_group_name_H-M  'C2/m'
_cell_length_a       6.79707
_cell_length_b       6.79707
_cell_length_c       6.79282
_cell_angle_alpha    79.6601
_cell_angle_beta     100.34
_cell_angle_gamma    94.8232

_symmetry_Int_Tables_number  12
_chemical_formula_structural  ZnCrO4
_chemical_formula_sum  Zn4Cr4O6
_cell_volume  303.28274953427604
_cell_formula_units_Z  4
loop_
  _symmetry_equiv_pos_site_id
 _symmetry_equiv_pos_as_xyz
 1  'x, y, z'
loop_
 _atom_site_type_symbol
 _atom_site_label
 _atom_site_symmetry_multiplicity
 _atom_site_fract_x
 _atom_site_fract_y
 _atom_site_fract_z
 _atom_site_fract_occupancy
 Cr  Cr1  1  0.27578  0.72422  0.41114  1
 Cr  Cr2  1  0.25508  0.25508  -0.00000  1
 Cr  Cr3  1  0.74492  0.74492  -0.00000  1
 Cr  Cr4  1  0.72422  0.27578  0.58886  1
 O  O1  1  0.48691  0.21514  0.52058  1
 O  O2  1  0.14265  0.85735  0.53707  1
 O  O3  1  0.21302  0.78698  0.16480  1
 O  O4  1  0.51269  0.78104  0.89295  1
 O  O5  1  0.78698  0.21302  0.83520  1
 O  O6  1  0.21514  0.48691  0.47942  1
 O  O7  1  0.51309  0.78486  0.47942  1
 O  O8  1  0.21896  0.48731  0.89295  1
 O  O9  1  0.19932  0.11059  0.81547  1
 O  O10  1  0.85735  0.14265  0.46293  1
 O  O11  1  0.11059  0.19932  0.18453  1
 O  O12  1  0.88941  0.80068  0.81547  1
 O  O13  1  0.78486  0.51309  0.52058  1
 O  O14  1  0.78104  0.51269  0.10705  1
 O  O15  1  0.48731  0.21896  0.10705  1
 O  O16  1  0.80068  0.88941  0.18453  1
 Zn  Zn1  1  0.79455  0.20545  0.13584  1
 Zn  Zn2  1  0.81833  0.81833  0.50000  1
 Zn  Zn3  1  0.18167  0.18167  0.50000  1
 Zn  Zn4  1  0.20545  0.79455  0.86416  1
