CIF file written using JARVIS-Tools package.
data_Nb3Br8
_symmetry_space_group_name_H-M  'R-3m'
_cell_length_a       13.6768
_cell_length_b       13.6768
_cell_length_c       13.6768
_cell_angle_alpha    30.227
_cell_angle_beta     30.2269
_cell_angle_gamma    30.227

_symmetry_Int_Tables_number  166
_chemical_formula_structural  Nb3Br8
_chemical_formula_sum  Nb6Br6
_cell_volume  574.5144980952421
_cell_formula_units_Z  2
loop_
  _symmetry_equiv_pos_site_id
 _symmetry_equiv_pos_as_xyz
 1  'x, y, z'
loop_
 _atom_site_type_symbol
 _atom_site_label
 _atom_site_symmetry_multiplicity
 _atom_site_fract_x
 _atom_site_fract_y
 _atom_site_fract_z
 _atom_site_fract_occupancy
 Br  Br1  1  0.70614  0.70614  0.20571  1
 Br  Br2  1  0.36444  0.36444  0.36444  1
 Br  Br3  1  0.78532  0.78532  0.78532  1
 Br  Br4  1  0.21468  0.21468  0.21468  1
 Br  Br5  1  0.11824  0.11824  0.62771  1
 Br  Br6  1  0.11824  0.62771  0.11824  1
 Br  Br7  1  0.29386  0.79429  0.29386  1
 Br  Br8  1  0.29386  0.29386  0.79429  1
 Br  Br9  1  0.79429  0.29386  0.29386  1
 Br  Br10  1  0.63556  0.63556  0.63556  1
 Br  Br11  1  0.70614  0.20571  0.70614  1
 Br  Br12  1  0.88176  0.37229  0.88176  1
 Br  Br13  1  0.88176  0.88176  0.37229  1
 Br  Br14  1  0.37229  0.88176  0.88176  1
 Br  Br15  1  0.62771  0.11824  0.11824  1
 Br  Br16  1  0.20571  0.70614  0.70614  1
 Nb  Nb1  1  0.55057  0.55057  0.14550  1
 Nb  Nb2  1  0.44943  0.44943  0.85450  1
 Nb  Nb3  1  0.44943  0.85450  0.44943  1
 Nb  Nb4  1  0.85450  0.44943  0.44943  1
 Nb  Nb5  1  0.14550  0.55057  0.55057  1
 Nb  Nb6  1  0.55057  0.14550  0.55057  1
