CIF file written using JARVIS-Tools package.
data_BaSrGa4
_symmetry_space_group_name_H-M  'P6/mmm'
_cell_length_a       4.40071
_cell_length_b       4.4007
_cell_length_c       9.81517
_cell_angle_alpha    90
_cell_angle_beta     90
_cell_angle_gamma    120

_symmetry_Int_Tables_number  191
_chemical_formula_structural  BaSrGa4
_chemical_formula_sum  BaSrGa4
_cell_volume  164.616377500399
_cell_formula_units_Z  1
loop_
  _symmetry_equiv_pos_site_id
 _symmetry_equiv_pos_as_xyz
 1  'x, y, z'
loop_
 _atom_site_type_symbol
 _atom_site_label
 _atom_site_symmetry_multiplicity
 _atom_site_fract_x
 _atom_site_fract_y
 _atom_site_fract_z
 _atom_site_fract_occupancy
 Ba  Ba1  1  0.00000  0.00000  0.50000  1
 Ga  Ga1  1  0.66667  0.33333  0.76117  1
 Ga  Ga2  1  0.66667  0.33333  0.23883  1
 Ga  Ga3  1  0.33333  0.66667  0.76117  1
 Ga  Ga4  1  0.33333  0.66667  0.23883  1
 Sr  Sr1  1  0.00000  0.00000  0.00000  1
