CIF file written using JARVIS-Tools package.
data_CaLu2Te4
_symmetry_space_group_name_H-M  'P2/m'
_cell_length_a       4.32689
_cell_length_b       7.39975
_cell_length_c       7.64031
_cell_angle_alpha    72.0889
_cell_angle_beta     90
_cell_angle_gamma    90

_symmetry_Int_Tables_number  10
_chemical_formula_structural  CaLu2Te4
_chemical_formula_sum  CaLu2Te4
_cell_volume  232.7708977585171
_cell_formula_units_Z  1
loop_
  _symmetry_equiv_pos_site_id
 _symmetry_equiv_pos_as_xyz
 1  'x, y, z'
loop_
 _atom_site_type_symbol
 _atom_site_label
 _atom_site_symmetry_multiplicity
 _atom_site_fract_x
 _atom_site_fract_y
 _atom_site_fract_z
 _atom_site_fract_occupancy
 Ca  Ca1  1  0.00000  0.50000  0.50000  1
 Lu  Lu1  1  0.00000  0.00000  0.00000  1
 Lu  Lu2  1  0.50000  0.50000  0.00000  1
 Te  Te1  1  0.50000  0.76220  0.24294  1
 Te  Te2  1  0.00000  0.25288  0.23735  1
 Te  Te3  1  0.50000  0.23780  0.75706  1
 Te  Te4  1  0.00000  0.74712  0.76265  1
