CIF file written using JARVIS-Tools package.
data_Ni2Hg2SF6
_symmetry_space_group_name_H-M  'Fd-3m'
_cell_length_a       7.62934
_cell_length_b       7.62934
_cell_length_c       7.62934
_cell_angle_alpha    60
_cell_angle_beta     60
_cell_angle_gamma    60

_symmetry_Int_Tables_number  227
_chemical_formula_structural  Ni2Hg2SF6
_chemical_formula_sum  Ni4Hg4S2F2
_cell_volume  314.0114577508935
_cell_formula_units_Z  2
loop_
  _symmetry_equiv_pos_site_id
 _symmetry_equiv_pos_as_xyz
 1  'x, y, z'
loop_
 _atom_site_type_symbol
 _atom_site_label
 _atom_site_symmetry_multiplicity
 _atom_site_fract_x
 _atom_site_fract_y
 _atom_site_fract_z
 _atom_site_fract_occupancy
 F  F1  1  0.31263  0.31263  0.93737  1
 F  F2  1  0.68737  0.06263  0.06263  1
 F  F3  1  0.31263  0.93737  0.93737  1
 F  F4  1  0.68737  0.06263  0.68737  1
 F  F5  1  0.68737  0.68737  0.06263  1
 F  F6  1  0.06263  0.68737  0.68737  1
 F  F7  1  0.06263  0.68737  0.06263  1
 F  F8  1  0.31263  0.93737  0.31263  1
 F  F9  1  0.93737  0.31263  0.93737  1
 F  F10  1  0.93737  0.31263  0.31263  1
 F  F11  1  0.93737  0.93737  0.31263  1
 F  F12  1  0.06263  0.06263  0.68737  1
 Hg  Hg1  1  0.50000  0.50000  0.50000  1
 Hg  Hg2  1  0.50000  0.00000  0.50000  1
 Hg  Hg3  1  -0.00000  0.50000  0.50000  1
 Hg  Hg4  1  0.50000  0.50000  0.00000  1
 Ni  Ni1  1  0.00000  0.00000  0.00000  1
 Ni  Ni2  1  -0.00000  0.50000  0.00000  1
 Ni  Ni3  1  0.50000  0.00000  0.00000  1
 Ni  Ni4  1  0.00000  0.00000  0.50000  1
 S  S1  1  0.37500  0.37500  0.37500  1
 S  S2  1  0.62500  0.62500  0.62500  1
