CIF file written using JARVIS-Tools package.
data_KCuS
_symmetry_space_group_name_H-M  'Pnma'
_cell_length_a       5.34638
_cell_length_b       6.14903
_cell_length_c       10.6168
_cell_angle_alpha    90
_cell_angle_beta     90
_cell_angle_gamma    90

_symmetry_Int_Tables_number  62
_chemical_formula_structural  KCuS
_chemical_formula_sum  K4Cu4S4
_cell_volume  349.0269333223327
_cell_formula_units_Z  4
loop_
  _symmetry_equiv_pos_site_id
 _symmetry_equiv_pos_as_xyz
 1  'x, y, z'
loop_
 _atom_site_type_symbol
 _atom_site_label
 _atom_site_symmetry_multiplicity
 _atom_site_fract_x
 _atom_site_fract_y
 _atom_site_fract_z
 _atom_site_fract_occupancy
 Cu  Cu1  1  0.99858  0.00003  -0.00001  1
 Cu  Cu2  1  0.99858  0.49997  0.49999  1
 Cu  Cu3  1  0.49858  0.50003  0.50001  1
 Cu  Cu4  1  0.49858  -0.00003  0.00001  1
 K  K1  1  0.24876  0.52426  0.15494  1
 K  K2  1  0.74876  0.02426  0.34506  1
 K  K3  1  0.24876  0.97574  0.65494  1
 K  K4  1  0.74876  0.47574  0.84506  1
 S  S1  1  0.24866  0.22970  0.91004  1
 S  S2  1  0.24866  0.27030  0.41004  1
 S  S3  1  0.74866  0.77030  0.08996  1
 S  S4  1  0.74866  0.72970  0.58996  1
