CIF file written using JARVIS-Tools package.
data_FeIr
_symmetry_space_group_name_H-M  'R-3m'
_cell_length_a       4.4588
_cell_length_b       4.4588
_cell_length_c       4.4588
_cell_angle_alpha    34.5345
_cell_angle_beta     34.5345
_cell_angle_gamma    34.5344

_symmetry_Int_Tables_number  166
_chemical_formula_structural  FeIr
_chemical_formula_sum  FeIr
_cell_volume  25.41679542126916
_cell_formula_units_Z  1
loop_
  _symmetry_equiv_pos_site_id
 _symmetry_equiv_pos_as_xyz
 1  'x, y, z'
loop_
 _atom_site_type_symbol
 _atom_site_label
 _atom_site_symmetry_multiplicity
 _atom_site_fract_x
 _atom_site_fract_y
 _atom_site_fract_z
 _atom_site_fract_occupancy
 Fe  Fe1  1  0.00000  0.00000  0.00000  1
 Ir  Ir1  1  0.50000  0.50000  0.50000  1
