CIF file written using JARVIS-Tools package.
data_CeZn2Co
_symmetry_space_group_name_H-M  'Cmcm'
_cell_length_a       6.68153
_cell_length_b       6.68153
_cell_length_c       4.38864
_cell_angle_alpha    90
_cell_angle_beta     90
_cell_angle_gamma    135.684

_symmetry_Int_Tables_number  63
_chemical_formula_structural  CeZn2Co
_chemical_formula_sum  Ce2Zn4Co2
_cell_volume  136.8727779382874
_cell_formula_units_Z  2
loop_
  _symmetry_equiv_pos_site_id
 _symmetry_equiv_pos_as_xyz
 1  'x, y, z'
loop_
 _atom_site_type_symbol
 _atom_site_label
 _atom_site_symmetry_multiplicity
 _atom_site_fract_x
 _atom_site_fract_y
 _atom_site_fract_z
 _atom_site_fract_occupancy
 Ce  Ce1  1  0.79925  0.20075  0.25000  1
 Ce  Ce2  1  0.20075  0.79925  0.75000  1
 Co  Co1  1  0.36401  0.63599  0.25000  1
 Co  Co2  1  0.63599  0.36401  0.75000  1
 Zn  Zn1  1  0.80067  0.68681  0.25000  1
 Zn  Zn2  1  0.19933  0.31319  0.75000  1
 Zn  Zn3  1  0.31319  0.19933  0.25000  1
 Zn  Zn4  1  0.68681  0.80067  0.75000  1
