CIF file written using JARVIS-Tools package.
data_KMnBr3
_symmetry_space_group_name_H-M  'Pnma'
_cell_length_a       4.04434
_cell_length_b       9.24195
_cell_length_c       15.0216
_cell_angle_alpha    90
_cell_angle_beta     90
_cell_angle_gamma    90

_symmetry_Int_Tables_number  62
_chemical_formula_structural  KMnBr3
_chemical_formula_sum  K4Mn4Br2
_cell_volume  561.4699210527132
_cell_formula_units_Z  4
loop_
  _symmetry_equiv_pos_site_id
 _symmetry_equiv_pos_as_xyz
 1  'x, y, z'
loop_
 _atom_site_type_symbol
 _atom_site_label
 _atom_site_symmetry_multiplicity
 _atom_site_fract_x
 _atom_site_fract_y
 _atom_site_fract_z
 _atom_site_fract_occupancy
 Br  Br1  1  0.25000  0.02281  0.10292  1
 Br  Br2  1  0.25000  0.28420  0.78974  1
 Br  Br3  1  0.25000  0.52281  0.39708  1
 Br  Br4  1  0.25000  0.78420  0.71026  1
 Br  Br5  1  0.75000  0.21580  0.28974  1
 Br  Br6  1  0.75000  0.71580  0.21026  1
 Br  Br7  1  0.25000  0.66966  0.99272  1
 Br  Br8  1  0.75000  0.83034  0.49272  1
 Br  Br9  1  0.25000  0.16966  0.50728  1
 Br  Br10  1  0.75000  0.47719  0.60292  1
 Br  Br11  1  0.75000  0.97719  0.89708  1
 Br  Br12  1  0.75000  0.33034  0.00728  1
 K  K1  1  0.25000  0.93398  0.32504  1
 K  K2  1  0.75000  0.06602  0.67496  1
 K  K3  1  0.25000  0.43398  0.17496  1
 K  K4  1  0.75000  0.56602  0.82504  1
 Mn  Mn1  1  0.75000  0.33490  0.44392  1
 Mn  Mn2  1  0.25000  0.66510  0.55608  1
 Mn  Mn3  1  0.75000  0.83490  0.05608  1
 Mn  Mn4  1  0.25000  0.16510  0.94392  1
