CIF file written using JARVIS-Tools package.
data_Ta4S9Br8
_symmetry_space_group_name_H-M  'I4mm'
_cell_length_a       6.96614
_cell_length_b       9.71165
_cell_length_c       9.71165
_cell_angle_alpha    82.6096
_cell_angle_beta     68.9828
_cell_angle_gamma    68.9828

_symmetry_Int_Tables_number  107
_chemical_formula_structural  Ta4S9Br8
_chemical_formula_sum  Ta4S9Br8
_cell_volume  572.50845075723
_cell_formula_units_Z  1
loop_
  _symmetry_equiv_pos_site_id
 _symmetry_equiv_pos_as_xyz
 1  'x, y, z'
loop_
 _atom_site_type_symbol
 _atom_site_label
 _atom_site_symmetry_multiplicity
 _atom_site_fract_x
 _atom_site_fract_y
 _atom_site_fract_z
 _atom_site_fract_occupancy
 Br  Br1  1  0.07876  0.63867  0.36133  1
 Br  Br2  1  0.07876  0.36133  0.63867  1
 Br  Br3  1  0.58643  0.76567  0.23433  1
 Br  Br4  1  0.44009  0.63867  0.63867  1
 Br  Br5  1  0.82076  0.76567  0.76567  1
 Br  Br6  1  0.35210  0.23433  0.23433  1
 Br  Br7  1  0.58643  0.23433  0.76567  1
 Br  Br8  1  0.71742  0.36133  0.36133  1
 S  S1  1  0.04407  -0.00000  0.27016  1
 S  S2  1  0.73162  0.39568  0.00000  1
 S  S3  1  0.12730  -0.00000  0.60432  1
 S  S4  1  0.31423  0.72984  -0.00000  1
 S  S5  1  0.82076  0.00000  0.00000  1
 S  S6  1  0.04407  0.27016  -0.00000  1
 S  S7  1  0.73162  0.00000  0.39568  1
 S  S8  1  0.31423  -0.00000  0.72984  1
 S  S9  1  0.12730  0.60432  -0.00000  1
 Ta  Ta1  1  0.93302  0.81624  0.18376  1
 Ta  Ta2  1  0.74926  0.18376  0.18376  1
 Ta  Ta3  1  0.93302  0.18376  0.81624  1
 Ta  Ta4  1  0.11678  0.81624  0.81624  1
