CIF file written using JARVIS-Tools package.
data_NaCuPO4
_symmetry_space_group_name_H-M  'P2_12_12_1'
_cell_length_a       4.82279
_cell_length_b       7.16201
_cell_length_c       9.75782
_cell_angle_alpha    90
_cell_angle_beta     90
_cell_angle_gamma    90

_symmetry_Int_Tables_number  19
_chemical_formula_structural  NaCuPO4
_chemical_formula_sum  Na4Cu4P4O6
_cell_volume  337.04346736813795
_cell_formula_units_Z  4
loop_
  _symmetry_equiv_pos_site_id
 _symmetry_equiv_pos_as_xyz
 1  'x, y, z'
loop_
 _atom_site_type_symbol
 _atom_site_label
 _atom_site_symmetry_multiplicity
 _atom_site_fract_x
 _atom_site_fract_y
 _atom_site_fract_z
 _atom_site_fract_occupancy
 Cu  Cu1  1  0.49407  0.43858  0.95528  1
 Cu  Cu2  1  -0.00593  0.06142  0.04472  1
 Cu  Cu3  1  0.50593  0.93858  0.54472  1
 Cu  Cu4  1  0.00593  0.56142  0.45528  1
 Na  Na1  1  0.98721  0.72695  0.81108  1
 Na  Na2  1  0.51279  0.27305  0.31108  1
 Na  Na3  1  0.01279  0.22695  0.68892  1
 Na  Na4  1  0.48721  0.77305  0.18892  1
 O  O1  1  0.74792  0.97990  0.37555  1
 O  O2  1  0.67065  0.46084  0.77675  1
 O  O3  1  0.20730  0.11167  0.47258  1
 O  O4  1  0.82935  0.53916  0.27675  1
 O  O5  1  0.75208  0.02010  0.87555  1
 O  O6  1  0.79871  0.28161  0.10489  1
 O  O7  1  0.20129  0.78161  0.39511  1
 O  O8  1  0.79270  0.61167  0.02742  1
 O  O9  1  0.25208  0.47990  0.12445  1
 O  O10  1  0.70129  0.71839  0.60489  1
 O  O11  1  0.17065  0.03916  0.22325  1
 O  O12  1  0.32935  0.96084  0.72325  1
 O  O13  1  0.29871  0.21839  0.89511  1
 O  O14  1  0.70730  0.38833  0.52742  1
 O  O15  1  0.24792  0.52010  0.62445  1
 O  O16  1  0.29270  0.88833  0.97258  1
 P  P1  1  0.06705  0.97789  0.36687  1
 P  P2  1  0.93295  0.47789  0.13313  1
 P  P3  1  0.56705  0.52211  0.63313  1
 P  P4  1  0.43295  0.02211  0.86687  1
