CIF file written using JARVIS-Tools package.
data_Fe5B2P
_symmetry_space_group_name_H-M  'I4/mcm'
_cell_length_a       5.43236
_cell_length_b       5.43235
_cell_length_c       6.43771
_cell_angle_alpha    114.956
_cell_angle_beta     114.956
_cell_angle_gamma    90

_symmetry_Int_Tables_number  140
_chemical_formula_structural  Fe5B2P
_chemical_formula_sum  Fe0B4P2
_cell_volume  152.4550277778798
_cell_formula_units_Z  2
loop_
  _symmetry_equiv_pos_site_id
 _symmetry_equiv_pos_as_xyz
 1  'x, y, z'
loop_
 _atom_site_type_symbol
 _atom_site_label
 _atom_site_symmetry_multiplicity
 _atom_site_fract_x
 _atom_site_fract_y
 _atom_site_fract_z
 _atom_site_fract_occupancy
 B  B1  1  0.38116  0.88116  -0.00000  1
 B  B2  1  0.11884  0.38116  -0.00000  1
 B  B3  1  0.61884  0.11884  0.00000  1
 B  B4  1  0.88116  0.61884  0.00000  1
 Fe  Fe1  1  0.50000  0.50000  0.00000  1
 Fe  Fe2  1  0.46718  0.30939  0.27657  1
 Fe  Fe3  1  0.30939  0.80939  0.27657  1
 Fe  Fe4  1  0.53282  0.69061  0.72343  1
 Fe  Fe5  1  0.19061  0.03282  0.72343  1
 Fe  Fe6  1  0.03282  0.53282  0.72343  1
 Fe  Fe7  1  0.69061  0.19061  0.72343  1
 Fe  Fe8  1  0.96718  0.46718  0.27657  1
 Fe  Fe9  1  0.00000  0.00000  0.00000  1
 Fe  Fe10  1  0.80939  0.96718  0.27657  1
 P  P1  1  0.25000  0.25000  0.50000  1
 P  P2  1  0.75000  0.75000  0.50000  1
