CIF file written using JARVIS-Tools package.
data_CeSnO4
_symmetry_space_group_name_H-M  'R-3m'
_cell_length_a       6.57834
_cell_length_b       6.57835
_cell_length_c       6.57834
_cell_angle_alpha    33.003
_cell_angle_beta     33.0029
_cell_angle_gamma    33.003

_symmetry_Int_Tables_number  166
_chemical_formula_structural  CeSnO4
_chemical_formula_sum  CeSnO4
_cell_volume  75.15984647710629
_cell_formula_units_Z  1
loop_
  _symmetry_equiv_pos_site_id
 _symmetry_equiv_pos_as_xyz
 1  'x, y, z'
loop_
 _atom_site_type_symbol
 _atom_site_label
 _atom_site_symmetry_multiplicity
 _atom_site_fract_x
 _atom_site_fract_y
 _atom_site_fract_z
 _atom_site_fract_occupancy
 Ce  Ce1  1  0.00000  0.00000  0.00000  1
 O  O1  1  0.62006  0.62006  0.62006  1
 O  O2  1  0.12992  0.12992  0.12992  1
 O  O3  1  0.87008  0.87008  0.87008  1
 O  O4  1  0.37994  0.37994  0.37994  1
 Sn  Sn1  1  0.50000  0.50000  0.50000  1
