CIF file written using JARVIS-Tools package.
data_SmI2
_symmetry_space_group_name_H-M  'Pbca'
_cell_length_a       7.32393
_cell_length_b       8.24633
_cell_length_c       13.9847
_cell_angle_alpha    90
_cell_angle_beta     90
_cell_angle_gamma    90

_symmetry_Int_Tables_number  61
_chemical_formula_structural  SmI2
_chemical_formula_sum  Sm8I6
_cell_volume  844.6162514429332
_cell_formula_units_Z  8
loop_
  _symmetry_equiv_pos_site_id
 _symmetry_equiv_pos_as_xyz
 1  'x, y, z'
loop_
 _atom_site_type_symbol
 _atom_site_label
 _atom_site_symmetry_multiplicity
 _atom_site_fract_x
 _atom_site_fract_y
 _atom_site_fract_z
 _atom_site_fract_occupancy
 I  I1  1  0.70461  0.38510  0.79641  1
 I  I2  1  0.20461  0.61490  0.70359  1
 I  I3  1  0.70461  0.88510  0.70359  1
 I  I4  1  0.79539  0.38510  0.29641  1
 I  I5  1  0.01730  0.29512  0.04730  1
 I  I6  1  0.29539  0.61490  0.20359  1
 I  I7  1  0.98270  0.70488  0.95270  1
 I  I8  1  0.79539  0.88510  0.20359  1
 I  I9  1  0.01730  0.79512  0.45270  1
 I  I10  1  0.20461  0.11490  0.79641  1
 I  I11  1  0.51730  0.20488  0.04730  1
 I  I12  1  0.48270  0.29512  0.54730  1
 I  I13  1  0.51730  0.70488  0.45270  1
 I  I14  1  0.29539  0.11490  0.29641  1
 I  I15  1  0.48270  0.79512  0.95270  1
 I  I16  1  0.98270  0.20488  0.54730  1
 Sm  Sm1  1  0.17260  0.44992  0.40517  1
 Sm  Sm2  1  0.32740  0.94992  0.59483  1
 Sm  Sm3  1  0.32740  0.44992  0.90517  1
 Sm  Sm4  1  0.82740  0.05008  0.90517  1
 Sm  Sm5  1  0.82740  0.55008  0.59483  1
 Sm  Sm6  1  0.67260  0.05008  0.40517  1
 Sm  Sm7  1  0.17260  0.94992  0.09483  1
 Sm  Sm8  1  0.67260  0.55008  0.09483  1
