CIF file written using JARVIS-Tools package.
data_Ba3NaBiO6
_symmetry_space_group_name_H-M  'R-3c'
_cell_length_a       7.32326
_cell_length_b       7.32326
_cell_length_c       7.32326
_cell_angle_alpha    91.9045
_cell_angle_beta     91.9045
_cell_angle_gamma    91.9045

_symmetry_Int_Tables_number  167
_chemical_formula_structural  Ba3NaBiO6
_chemical_formula_sum  Ba6Na2Bi2O2
_cell_volume  392.08140781627577
_cell_formula_units_Z  2
loop_
  _symmetry_equiv_pos_site_id
 _symmetry_equiv_pos_as_xyz
 1  'x, y, z'
loop_
 _atom_site_type_symbol
 _atom_site_label
 _atom_site_symmetry_multiplicity
 _atom_site_fract_x
 _atom_site_fract_y
 _atom_site_fract_z
 _atom_site_fract_occupancy
 Ba  Ba1  1  0.89764  0.25000  0.60236  1
 Ba  Ba2  1  0.10236  0.75000  0.39764  1
 Ba  Ba3  1  0.60236  0.89764  0.25000  1
 Ba  Ba4  1  0.75000  0.39764  0.10236  1
 Ba  Ba5  1  0.39764  0.10236  0.75000  1
 Ba  Ba6  1  0.25000  0.60236  0.89764  1
 Bi  Bi1  1  0.00000  0.00000  0.00000  1
 Bi  Bi2  1  0.50000  0.50000  0.50000  1
 Na  Na1  1  0.75000  0.75000  0.75000  1
 Na  Na2  1  0.25000  0.25000  0.25000  1
 O  O1  1  0.21887  0.41770  0.55159  1
 O  O2  1  0.71887  0.05159  0.91770  1
 O  O3  1  0.94841  0.08230  0.28113  1
 O  O4  1  0.05159  0.91770  0.71887  1
 O  O5  1  0.91770  0.71887  0.05159  1
 O  O6  1  0.41770  0.55159  0.21887  1
 O  O7  1  0.08230  0.28113  0.94841  1
 O  O8  1  0.28113  0.94841  0.08230  1
 O  O9  1  0.55159  0.21887  0.41770  1
 O  O10  1  0.58230  0.44841  0.78113  1
 O  O11  1  0.78113  0.58230  0.44841  1
 O  O12  1  0.44841  0.78113  0.58230  1
