CIF file written using JARVIS-Tools package.
data_Pr2CuSi3Rh2
_symmetry_space_group_name_H-M  'Amm2'
_cell_length_a       8.81553
_cell_length_b       8.81553
_cell_length_c       4.12578
_cell_angle_alpha    90
_cell_angle_beta     90
_cell_angle_gamma    151.984

_symmetry_Int_Tables_number  38
_chemical_formula_structural  Pr2CuSi3Rh2
_chemical_formula_sum  Pr2CuSi3Rh2
_cell_volume  150.60513183827422
_cell_formula_units_Z  1
loop_
  _symmetry_equiv_pos_site_id
 _symmetry_equiv_pos_as_xyz
 1  'x, y, z'
loop_
 _atom_site_type_symbol
 _atom_site_label
 _atom_site_symmetry_multiplicity
 _atom_site_fract_x
 _atom_site_fract_y
 _atom_site_fract_z
 _atom_site_fract_occupancy
 Cu  Cu1  1  0.66830  0.33170  0.00000  1
 Pr  Pr1  1  0.89524  0.10476  0.00000  1
 Pr  Pr2  1  0.10945  0.89055  0.50000  1
 Rh  Rh1  1  0.25483  0.74517  0.00000  1
 Rh  Rh2  1  0.75603  0.24397  0.50000  1
 Si  Si1  1  0.31775  0.68225  0.50000  1
 Si  Si2  1  0.53539  0.46461  0.00000  1
 Si  Si3  1  0.46301  0.53699  0.50000  1
