CIF file written using JARVIS-Tools package.
data_LiTi2S4
_symmetry_space_group_name_H-M  'Fd-3m'
_cell_length_a       7.15944
_cell_length_b       7.15944
_cell_length_c       7.15952
_cell_angle_alpha    120
_cell_angle_beta     120
_cell_angle_gamma    90

_symmetry_Int_Tables_number  227
_chemical_formula_structural  LiTi2S4
_chemical_formula_sum  Li2Ti4S8
_cell_volume  259.4968432688816
_cell_formula_units_Z  2
loop_
  _symmetry_equiv_pos_site_id
 _symmetry_equiv_pos_as_xyz
 1  'x, y, z'
loop_
 _atom_site_type_symbol
 _atom_site_label
 _atom_site_symmetry_multiplicity
 _atom_site_fract_x
 _atom_site_fract_y
 _atom_site_fract_z
 _atom_site_fract_occupancy
 Li  Li1  1  0.37500  0.62500  0.75000  1
 Li  Li2  1  0.62500  0.37500  0.25000  1
 S  S1  1  0.75737  0.77211  0.51474  1
 S  S2  1  0.75736  0.24263  0.98526  1
 S  S3  1  0.22789  0.24263  0.98526  1
 S  S4  1  0.24263  0.22789  0.48526  1
 S  S5  1  0.24263  0.75736  0.48526  1
 S  S6  1  0.24264  0.75737  0.01474  1
 S  S7  1  0.75737  0.24264  0.51474  1
 S  S8  1  0.77211  0.75737  0.01474  1
 Ti  Ti1  1  0.00000  0.50000  0.00000  1
 Ti  Ti2  1  0.00000  -0.00000  0.50000  1
 Ti  Ti3  1  0.50000  -0.00000  0.50000  1
 Ti  Ti4  1  0.00000  0.00000  0.00000  1
