CIF file written using JARVIS-Tools package.
data_AlCrW2O8
_symmetry_space_group_name_H-M  'P1'
_cell_length_a       4.88706
_cell_length_b       5.66518
_cell_length_c       6.40454
_cell_angle_alpha    114.064
_cell_angle_beta     86.3088
_cell_angle_gamma    108.568

_symmetry_Int_Tables_number  1
_chemical_formula_structural  AlCrW2O8
_chemical_formula_sum  AlCrW2O8
_cell_volume  153.03818471713947
_cell_formula_units_Z  1
loop_
  _symmetry_equiv_pos_site_id
 _symmetry_equiv_pos_as_xyz
 1  'x, y, z'
loop_
 _atom_site_type_symbol
 _atom_site_label
 _atom_site_symmetry_multiplicity
 _atom_site_fract_x
 _atom_site_fract_y
 _atom_site_fract_z
 _atom_site_fract_occupancy
 Al  Al1  1  0.45951  0.09145  0.59687  1
 Cr  Cr1  1  0.97429  0.09471  0.21394  1
 O  O1  1  0.64035  0.88770  0.64607  1
 O  O2  1  0.73247  0.32109  0.49047  1
 O  O3  1  0.63102  0.79337  0.20077  1
 O  O4  1  0.85799  0.39077  0.09494  1
 O  O5  1  0.16205  0.83922  0.98061  1
 O  O6  1  0.31876  0.33625  0.80010  1
 O  O7  1  0.32947  0.40440  0.27927  1
 O  O8  1  0.13813  0.84174  0.41369  1
 W  W1  1  0.71654  0.60054  0.40110  1
 W  W2  1  0.23952  0.59485  0.06068  1
