CIF file written using JARVIS-Tools package.
data_Na3FePCO7
_symmetry_space_group_name_H-M  'P2_1/m'
_cell_length_a       5.15063
_cell_length_b       6.58188
_cell_length_c       9.02504
_cell_angle_alpha    90
_cell_angle_beta     90.5068
_cell_angle_gamma    90

_symmetry_Int_Tables_number  11
_chemical_formula_structural  Na3FePCO7
_chemical_formula_sum  Na6Fe2P2C2O4
_cell_volume  305.94462816810574
_cell_formula_units_Z  2
loop_
  _symmetry_equiv_pos_site_id
 _symmetry_equiv_pos_as_xyz
 1  'x, y, z'
loop_
 _atom_site_type_symbol
 _atom_site_label
 _atom_site_symmetry_multiplicity
 _atom_site_fract_x
 _atom_site_fract_y
 _atom_site_fract_z
 _atom_site_fract_occupancy
 C  C1  1  0.27214  0.25000  0.05895  1
 C  C2  1  0.72786  0.75000  0.94105  1
 Fe  Fe1  1  0.77926  0.75000  0.64515  1
 Fe  Fe2  1  0.22074  0.25000  0.35485  1
 Na  Na1  1  0.75140  0.99993  0.26275  1
 Na  Na2  1  0.24860  0.00007  0.73725  1
 Na  Na3  1  0.76577  0.25000  0.91784  1
 Na  Na4  1  0.23423  0.75000  0.08216  1
 Na  Na5  1  0.24860  0.49993  0.73725  1
 Na  Na6  1  0.75140  0.50007  0.26275  1
 O  O1  1  0.77739  0.06158  0.68267  1
 O  O2  1  0.77739  0.43842  0.68267  1
 O  O3  1  0.48273  0.25000  0.13904  1
 O  O4  1  0.16182  0.75000  0.56420  1
 O  O5  1  0.22261  0.56158  0.31733  1
 O  O6  1  0.22261  0.93842  0.31733  1
 O  O7  1  0.71651  0.75000  0.08420  1
 O  O8  1  0.51727  0.75000  0.86096  1
 O  O9  1  0.59879  0.75000  0.43794  1
 O  O10  1  0.40121  0.25000  0.56206  1
 O  O11  1  0.04825  0.25000  0.12476  1
 O  O12  1  0.83818  0.25000  0.43580  1
 O  O13  1  0.28349  0.25000  0.91580  1
 O  O14  1  0.95175  0.75000  0.87524  1
 P  P1  1  0.70143  0.25000  0.58694  1
 P  P2  1  0.29857  0.75000  0.41306  1
