CIF file written using JARVIS-Tools package.
data_US2
_symmetry_space_group_name_H-M  'Pnma'
_cell_length_a       4.02056
_cell_length_b       7.09776
_cell_length_c       8.52035
_cell_angle_alpha    90
_cell_angle_beta     90
_cell_angle_gamma    90

_symmetry_Int_Tables_number  62
_chemical_formula_structural  US2
_chemical_formula_sum  U4S8
_cell_volume  243.1450130420205
_cell_formula_units_Z  4
loop_
  _symmetry_equiv_pos_site_id
 _symmetry_equiv_pos_as_xyz
 1  'x, y, z'
loop_
 _atom_site_type_symbol
 _atom_site_label
 _atom_site_symmetry_multiplicity
 _atom_site_fract_x
 _atom_site_fract_y
 _atom_site_fract_z
 _atom_site_fract_occupancy
 S  S1  1  0.25000  0.53114  0.83415  1
 S  S2  1  0.75000  0.46886  0.16585  1
 S  S3  1  0.25000  0.03114  0.66585  1
 S  S4  1  0.75000  0.96886  0.33415  1
 S  S5  1  0.25000  0.14005  0.06954  1
 S  S6  1  0.75000  0.85995  0.93046  1
 S  S7  1  0.25000  0.64005  0.43046  1
 S  S8  1  0.75000  0.35995  0.56954  1
 U  U1  1  0.25000  0.25170  0.37461  1
 U  U2  1  0.75000  0.74830  0.62539  1
 U  U3  1  0.25000  0.75170  0.12539  1
 U  U4  1  0.75000  0.24830  0.87461  1
