CIF file written using JARVIS-Tools package.
data_Cr3O4
_symmetry_space_group_name_H-M  'Cmmm'
_cell_length_a       5.88119
_cell_length_b       5.98178
_cell_length_c       5.8812
_cell_angle_alpha    59.4345
_cell_angle_beta     92.5102
_cell_angle_gamma    120.566

_symmetry_Int_Tables_number  65
_chemical_formula_structural  Cr3O4
_chemical_formula_sum  Cr6O8
_cell_volume  146.81829116085953
_cell_formula_units_Z  2
loop_
  _symmetry_equiv_pos_site_id
 _symmetry_equiv_pos_as_xyz
 1  'x, y, z'
loop_
 _atom_site_type_symbol
 _atom_site_label
 _atom_site_symmetry_multiplicity
 _atom_site_fract_x
 _atom_site_fract_y
 _atom_site_fract_z
 _atom_site_fract_occupancy
 Cr  Cr1  1  0.00000  0.00000  0.00000  1
 Cr  Cr2  1  0.50000  0.00000  -0.00000  1
 Cr  Cr3  1  -0.00000  0.50000  -0.00000  1
 Cr  Cr4  1  0.50000  -0.00000  0.50000  1
 Cr  Cr5  1  0.50000  0.50000  -0.00000  1
 Cr  Cr6  1  0.50000  0.50000  0.50000  1
 O  O1  1  0.28409  0.03409  0.21592  1
 O  O2  1  0.74301  0.00003  0.24297  1
 O  O3  1  0.28408  0.53409  0.21591  1
 O  O4  1  0.74297  0.49997  0.24301  1
 O  O5  1  0.25703  0.50003  0.75699  1
 O  O6  1  0.71592  0.46591  0.78409  1
 O  O7  1  0.25699  -0.00003  0.75703  1
 O  O8  1  0.71591  0.96591  0.78408  1
