CIF file written using JARVIS-Tools package.
data_Tb3Si2C2
_symmetry_space_group_name_H-M  'Cmmm'
_cell_length_a       7.54571
_cell_length_b       7.54571
_cell_length_c       4.66047
_cell_angle_alpha    90
_cell_angle_beta     90
_cell_angle_gamma    148.544

_symmetry_Int_Tables_number  65
_chemical_formula_structural  Tb3Si2C2
_chemical_formula_sum  Tb3Si2C2
_cell_volume  138.4738075155423
_cell_formula_units_Z  1
loop_
  _symmetry_equiv_pos_site_id
 _symmetry_equiv_pos_as_xyz
 1  'x, y, z'
loop_
 _atom_site_type_symbol
 _atom_site_label
 _atom_site_symmetry_multiplicity
 _atom_site_fract_x
 _atom_site_fract_y
 _atom_site_fract_z
 _atom_site_fract_occupancy
 C  C1  1  0.15917  0.15917  0.45899  1
 C  C2  1  0.84083  0.84083  0.45899  1
 Si  Si1  1  0.20036  0.79964  0.95901  1
 Si  Si2  1  0.79964  0.20036  0.95901  1
 Tb  Tb1  1  0.36082  0.63918  0.45900  1
 Tb  Tb2  1  0.63918  0.36082  0.45900  1
 Tb  Tb3  1  0.00000  0.00000  0.95899  1
