CIF file written using JARVIS-Tools package.
data_Fe6O5F7
_symmetry_space_group_name_H-M  'C2'
_cell_length_a       7.54875
_cell_length_b       5.5557
_cell_length_c       5.5557
_cell_angle_alpha    68.9989
_cell_angle_beta     68.8966
_cell_angle_gamma    68.8966

_symmetry_Int_Tables_number  5
_chemical_formula_structural  Fe6O5F7
_chemical_formula_sum  Fe6O5F7
_cell_volume  195.6634445102086
_cell_formula_units_Z  1
loop_
  _symmetry_equiv_pos_site_id
 _symmetry_equiv_pos_as_xyz
 1  'x, y, z'
loop_
 _atom_site_type_symbol
 _atom_site_label
 _atom_site_symmetry_multiplicity
 _atom_site_fract_x
 _atom_site_fract_y
 _atom_site_fract_z
 _atom_site_fract_occupancy
 F  F1  1  0.69466  0.09316  0.09700  1
 F  F2  1  0.02508  0.76158  0.76563  1
 F  F3  1  0.64158  0.56771  0.57175  1
 F  F4  1  0.97201  0.23634  0.24017  1
 F  F5  1  0.29508  0.90284  0.89936  1
 F  F6  1  0.33333  0.38237  0.95096  1
 F  F7  1  0.37159  0.43397  0.43050  1
 Fe  Fe1  1  0.83333  0.66322  0.67012  1
 Fe  Fe2  1  -0.00539  0.99806  0.01094  1
 Fe  Fe3  1  0.51935  0.96760  -0.01098  1
 Fe  Fe4  1  0.14732  0.34431  0.36574  1
 Fe  Fe5  1  0.33333  0.69606  0.63727  1
 Fe  Fe6  1  0.67206  0.32239  0.33527  1
 O  O1  1  -0.00699  0.70558  0.31397  1
 O  O2  1  0.33333  0.98826  0.34507  1
 O  O3  1  0.67366  0.01937  0.62776  1
 O  O4  1  -0.00908  0.30307  0.71921  1
 O  O5  1  0.67575  0.61412  0.03026  1
