CIF file written using JARVIS-Tools package.
data_Nd4MnSe6O
_symmetry_space_group_name_H-M  'P6_3mc'
_cell_length_a       9.58315
_cell_length_b       9.58315
_cell_length_c       6.89351
_cell_angle_alpha    90
_cell_angle_beta     90
_cell_angle_gamma    120

_symmetry_Int_Tables_number  186
_chemical_formula_structural  Nd4MnSe6O
_chemical_formula_sum  Nd8Mn2Se2O2
_cell_volume  548.2608991486222
_cell_formula_units_Z  2
loop_
  _symmetry_equiv_pos_site_id
 _symmetry_equiv_pos_as_xyz
 1  'x, y, z'
loop_
 _atom_site_type_symbol
 _atom_site_label
 _atom_site_symmetry_multiplicity
 _atom_site_fract_x
 _atom_site_fract_y
 _atom_site_fract_z
 _atom_site_fract_occupancy
 Mn  Mn1  1  0.00000  0.00000  0.49466  1
 Mn  Mn2  1  0.00000  0.00000  -0.00534  1
 Nd  Nd1  1  0.33333  0.66667  0.29461  1
 Nd  Nd2  1  0.66667  0.33333  0.79461  1
 Nd  Nd3  1  0.80180  0.19820  0.34242  1
 Nd  Nd4  1  0.60360  0.80180  0.84242  1
 Nd  Nd5  1  0.19820  0.39640  0.84242  1
 Nd  Nd6  1  0.80180  0.60360  0.34242  1
 Nd  Nd7  1  0.39640  0.19820  0.34242  1
 Nd  Nd8  1  0.19820  0.80180  0.84242  1
 O  O1  1  0.33333  0.66667  0.95982  1
 O  O2  1  0.66667  0.33333  0.45982  1
 Se  Se1  1  0.88433  0.76866  0.73640  1
 Se  Se2  1  0.11567  0.23134  0.23640  1
 Se  Se3  1  0.76866  0.88433  0.23640  1
 Se  Se4  1  0.88433  0.11567  0.73640  1
 Se  Se5  1  0.52910  0.05820  0.05210  1
 Se  Se6  1  0.05820  0.52910  0.55210  1
 Se  Se7  1  0.47090  0.52910  0.55210  1
 Se  Se8  1  0.94180  0.47090  0.05210  1
 Se  Se9  1  0.47090  0.94180  0.55210  1
 Se  Se10  1  0.52910  0.47090  0.05210  1
 Se  Se11  1  0.11567  0.88433  0.23640  1
 Se  Se12  1  0.23134  0.11567  0.73640  1
