CIF file written using JARVIS-Tools package.
data_MgSeO3
_symmetry_space_group_name_H-M  'Pnma'
_cell_length_a       5.04973
_cell_length_b       5.92668
_cell_length_c       7.70041
_cell_angle_alpha    90
_cell_angle_beta     90
_cell_angle_gamma    90

_symmetry_Int_Tables_number  62
_chemical_formula_structural  MgSeO3
_chemical_formula_sum  Mg4Se4O2
_cell_volume  230.45913715932036
_cell_formula_units_Z  4
loop_
  _symmetry_equiv_pos_site_id
 _symmetry_equiv_pos_as_xyz
 1  'x, y, z'
loop_
 _atom_site_type_symbol
 _atom_site_label
 _atom_site_symmetry_multiplicity
 _atom_site_fract_x
 _atom_site_fract_y
 _atom_site_fract_z
 _atom_site_fract_occupancy
 Mg  Mg1  1  0.50000  0.00000  0.00000  1
 Mg  Mg2  1  0.00000  0.50000  0.00000  1
 Mg  Mg3  1  0.00000  0.50000  0.50000  1
 Mg  Mg4  1  0.50000  0.00000  0.50000  1
 O  O1  1  0.85854  0.18205  0.42217  1
 O  O2  1  0.17699  0.56892  0.25000  1
 O  O3  1  0.64146  0.68205  0.07783  1
 O  O4  1  0.14146  0.81795  0.92217  1
 O  O5  1  0.35854  0.31795  0.57783  1
 O  O6  1  0.64146  0.68205  0.42217  1
 O  O7  1  0.35854  0.31795  0.92217  1
 O  O8  1  0.32301  0.06892  0.25000  1
 O  O9  1  0.14146  0.81795  0.57783  1
 O  O10  1  0.82301  0.43108  0.75000  1
 O  O11  1  0.85854  0.18205  0.07783  1
 O  O12  1  0.67699  0.93108  0.75000  1
 Se  Se1  1  0.01760  0.98235  0.75000  1
 Se  Se2  1  0.51760  0.51765  0.25000  1
 Se  Se3  1  0.48240  0.48235  0.75000  1
 Se  Se4  1  0.98240  0.01765  0.25000  1
