CIF file written using JARVIS-Tools package.
data_Bi2Te4Pb
_symmetry_space_group_name_H-M  'R3m'
_cell_length_a       14.5258
_cell_length_b       14.5258
_cell_length_c       14.5258
_cell_angle_alpha    17.7895
_cell_angle_beta     17.7895
_cell_angle_gamma    17.7895

_symmetry_Int_Tables_number  160
_chemical_formula_structural  Bi2Te4Pb
_chemical_formula_sum  Bi2Te4Pb
_cell_volume  249.75034183053353
_cell_formula_units_Z  1
loop_
  _symmetry_equiv_pos_site_id
 _symmetry_equiv_pos_as_xyz
 1  'x, y, z'
loop_
 _atom_site_type_symbol
 _atom_site_label
 _atom_site_symmetry_multiplicity
 _atom_site_fract_x
 _atom_site_fract_y
 _atom_site_fract_z
 _atom_site_fract_occupancy
 Bi  Bi1  1  0.42865  0.42865  0.42865  1
 Bi  Bi2  1  0.00051  0.00051  0.00051  1
 Pb  Pb1  1  0.56810  0.56810  0.56810  1
 Te  Te1  1  0.86295  0.86295  0.86295  1
 Te  Te2  1  0.13468  0.13468  0.13468  1
 Te  Te3  1  0.71236  0.71236  0.71236  1
 Te  Te4  1  0.29276  0.29276  0.29276  1
