CIF file written using JARVIS-Tools package.
data_Mn2NiN2
_symmetry_space_group_name_H-M  'I4/mmm'
_cell_length_a       2.83908
_cell_length_b       2.83912
_cell_length_c       11.6034
_cell_angle_alpha    90
_cell_angle_beta     90
_cell_angle_gamma    90

_symmetry_Int_Tables_number  139
_chemical_formula_structural  Mn2NiN2
_chemical_formula_sum  Mn4Ni2N4
_cell_volume  93.52938428700752
_cell_formula_units_Z  2
loop_
  _symmetry_equiv_pos_site_id
 _symmetry_equiv_pos_as_xyz
 1  'x, y, z'
loop_
 _atom_site_type_symbol
 _atom_site_label
 _atom_site_symmetry_multiplicity
 _atom_site_fract_x
 _atom_site_fract_y
 _atom_site_fract_z
 _atom_site_fract_occupancy
 Mn  Mn1  1  0.25002  0.25000  0.90985  1
 Mn  Mn2  1  0.25002  0.25000  0.59015  1
 Mn  Mn3  1  0.74998  0.75000  0.09015  1
 Mn  Mn4  1  0.74998  0.75000  0.40985  1
 N  N1  1  0.24997  0.25000  0.41104  1
 N  N2  1  0.24997  0.25000  0.08896  1
 N  N3  1  0.75003  0.75000  0.58896  1
 N  N4  1  0.75003  0.75000  0.91104  1
 Ni  Ni1  1  0.24985  0.25000  0.25000  1
 Ni  Ni2  1  0.75015  0.75000  0.75000  1
