CIF file written using JARVIS-Tools package.
data_KCNO
_symmetry_space_group_name_H-M  'Ima2'
_cell_length_a       5.48064
_cell_length_b       5.48065
_cell_length_c       5.48065
_cell_angle_alpha    113.357
_cell_angle_beta     112.757
_cell_angle_gamma    102.517

_symmetry_Int_Tables_number  46
_chemical_formula_structural  KCNO
_chemical_formula_sum  K2C2N2O2
_cell_volume  125.34759306347543
_cell_formula_units_Z  2
loop_
  _symmetry_equiv_pos_site_id
 _symmetry_equiv_pos_as_xyz
 1  'x, y, z'
loop_
 _atom_site_type_symbol
 _atom_site_label
 _atom_site_symmetry_multiplicity
 _atom_site_fract_x
 _atom_site_fract_y
 _atom_site_fract_z
 _atom_site_fract_occupancy
 C  C1  1  0.49828  0.74774  0.74602  1
 C  C2  1  0.99828  0.25226  0.75054  1
 K  K1  1  0.25154  -0.00000  0.25154  1
 K  K2  1  0.75154  0.50000  0.25154  1
 N  N1  1  0.35798  0.60900  0.46699  1
 N  N2  1  0.85798  0.39100  0.74898  1
 O  O1  1  0.64220  0.89201  0.03420  1
 O  O2  1  0.14220  0.10799  0.75019  1
