CIF file written using JARVIS-Tools package.
data_LiMn2P2O8
_symmetry_space_group_name_H-M  'C2'
_cell_length_a       4.90896
_cell_length_b       4.90895
_cell_length_c       7.08472
_cell_angle_alpha    91.677
_cell_angle_beta     88.3229
_cell_angle_gamma    92.7188

_symmetry_Int_Tables_number  5
_chemical_formula_structural  LiMn2P2O8
_chemical_formula_sum  LiMn2P2O8
_cell_volume  170.39465452123108
_cell_formula_units_Z  1
loop_
  _symmetry_equiv_pos_site_id
 _symmetry_equiv_pos_as_xyz
 1  'x, y, z'
loop_
 _atom_site_type_symbol
 _atom_site_label
 _atom_site_symmetry_multiplicity
 _atom_site_fract_x
 _atom_site_fract_y
 _atom_site_fract_z
 _atom_site_fract_occupancy
 Li  Li1  1  0.49553  0.49553  0.00000  1
 Mn  Mn1  1  0.95983  0.95983  0.00000  1
 Mn  Mn2  1  0.54853  0.54853  0.50000  1
 O  O1  1  0.56412  0.71247  0.23921  1
 O  O2  1  0.63700  0.15208  0.07598  1
 O  O3  1  0.14788  0.56887  0.56293  1
 O  O4  1  0.17270  0.04473  0.22074  1
 O  O5  1  0.04473  0.17270  0.77926  1
 O  O6  1  0.56887  0.14788  0.43707  1
 O  O7  1  0.15208  0.63700  0.92402  1
 O  O8  1  0.71247  0.56412  0.76079  1
 P  P1  1  0.47957  0.01669  0.24949  1
 P  P2  1  0.01669  0.47957  0.75051  1
