CIF file written using JARVIS-Tools package.
data_CeSc3B4O12
_symmetry_space_group_name_H-M  'R32'
_cell_length_a       6.28885
_cell_length_b       6.28884
_cell_length_c       6.28884
_cell_angle_alpha    103.513
_cell_angle_beta     103.513
_cell_angle_gamma    103.513

_symmetry_Int_Tables_number  155
_chemical_formula_structural  CeSc3B4O12
_chemical_formula_sum  CeSc3B4O2
_cell_volume  223.94250402102446
_cell_formula_units_Z  1
loop_
  _symmetry_equiv_pos_site_id
 _symmetry_equiv_pos_as_xyz
 1  'x, y, z'
loop_
 _atom_site_type_symbol
 _atom_site_label
 _atom_site_symmetry_multiplicity
 _atom_site_fract_x
 _atom_site_fract_y
 _atom_site_fract_z
 _atom_site_fract_occupancy
 B  B1  1  0.50000  0.50000  0.50000  1
 B  B2  1  0.50000  0.04982  0.95018  1
 B  B3  1  0.95018  0.50000  0.04982  1
 B  B4  1  0.04982  0.95018  0.50000  1
 Ce  Ce1  1  0.00000  0.00000  0.00000  1
 O  O1  1  0.09026  0.50000  0.90974  1
 O  O2  1  0.50000  0.90974  0.09026  1
 O  O3  1  0.37263  0.20083  0.96927  1
 O  O4  1  0.20083  0.96927  0.37263  1
 O  O5  1  0.96927  0.37263  0.20083  1
 O  O6  1  0.03073  0.79917  0.62737  1
 O  O7  1  0.35975  0.50000  0.64025  1
 O  O8  1  0.64025  0.35975  0.50000  1
 O  O9  1  0.90974  0.09026  0.50000  1
 O  O10  1  0.50000  0.64025  0.35975  1
 O  O11  1  0.62737  0.03073  0.79917  1
 O  O12  1  0.79917  0.62737  0.03073  1
 Sc  Sc1  1  0.45176  0.54824  -0.00000  1
 Sc  Sc2  1  0.54824  -0.00000  0.45176  1
 Sc  Sc3  1  0.00000  0.45176  0.54824  1
