CIF file written using JARVIS-Tools package.
data_ZrUO4
_symmetry_space_group_name_H-M  'R-3m'
_cell_length_a       6.43395
_cell_length_b       6.43395
_cell_length_c       6.43395
_cell_angle_alpha    33.8009
_cell_angle_beta     33.8009
_cell_angle_gamma    33.8009

_symmetry_Int_Tables_number  166
_chemical_formula_structural  ZrUO4
_chemical_formula_sum  ZrUO4
_cell_volume  73.44823027204454
_cell_formula_units_Z  1
loop_
  _symmetry_equiv_pos_site_id
 _symmetry_equiv_pos_as_xyz
 1  'x, y, z'
loop_
 _atom_site_type_symbol
 _atom_site_label
 _atom_site_symmetry_multiplicity
 _atom_site_fract_x
 _atom_site_fract_y
 _atom_site_fract_z
 _atom_site_fract_occupancy
 O  O1  1  0.62054  0.62054  0.62054  1
 O  O2  1  0.12920  0.12920  0.12920  1
 O  O3  1  0.87080  0.87080  0.87080  1
 O  O4  1  0.37946  0.37946  0.37946  1
 U  U1  1  0.00000  0.00000  0.00000  1
 Zr  Zr1  1  0.50000  0.50000  0.50000  1
