CIF file written using JARVIS-Tools package.
data_La2MoO6
_symmetry_space_group_name_H-M  'I-42m'
_cell_length_a       8.65821
_cell_length_b       8.65821
_cell_length_c       8.65821
_cell_angle_alpha    151.298
_cell_angle_beta     151.298
_cell_angle_gamma    41.04

_symmetry_Int_Tables_number  121
_chemical_formula_structural  La2MoO6
_chemical_formula_sum  La2MoO6
_cell_volume  149.38480670071573
_cell_formula_units_Z  1
loop_
  _symmetry_equiv_pos_site_id
 _symmetry_equiv_pos_as_xyz
 1  'x, y, z'
loop_
 _atom_site_type_symbol
 _atom_site_label
 _atom_site_symmetry_multiplicity
 _atom_site_fract_x
 _atom_site_fract_y
 _atom_site_fract_z
 _atom_site_fract_occupancy
 La  La1  1  0.67982  0.67982  0.00000  1
 La  La2  1  0.32018  0.32018  0.00000  1
 Mo  Mo1  1  0.00000  0.00000  0.00000  1
 O  O1  1  0.29862  0.83431  -0.00000  1
 O  O2  1  0.70138  0.70138  0.53570  1
 O  O3  1  0.83431  0.29862  -0.00000  1
 O  O4  1  0.16569  0.16569  0.46430  1
 O  O5  1  0.75000  0.25000  0.50000  1
 O  O6  1  0.25000  0.75000  0.50000  1
