CIF file written using JARVIS-Tools package.
data_K2PO4
_symmetry_space_group_name_H-M  'P2_1/c'
_cell_length_a       5.9023
_cell_length_b       10.2012
_cell_length_c       7.35485
_cell_angle_alpha    90
_cell_angle_beta     99.6172
_cell_angle_gamma    90

_symmetry_Int_Tables_number  14
_chemical_formula_structural  K2PO4
_chemical_formula_sum  K8P4O6
_cell_volume  436.6158390190063
_cell_formula_units_Z  4
loop_
  _symmetry_equiv_pos_site_id
 _symmetry_equiv_pos_as_xyz
 1  'x, y, z'
loop_
 _atom_site_type_symbol
 _atom_site_label
 _atom_site_symmetry_multiplicity
 _atom_site_fract_x
 _atom_site_fract_y
 _atom_site_fract_z
 _atom_site_fract_occupancy
 K  K1  1  0.74769  0.91539  0.17286  1
 K  K2  1  0.25231  0.41539  0.32714  1
 K  K3  1  0.25231  0.08461  0.82714  1
 K  K4  1  0.74769  0.58461  0.67286  1
 K  K5  1  0.23866  0.76989  0.47199  1
 K  K6  1  0.76134  0.26989  0.02801  1
 K  K7  1  0.76134  0.23011  0.52801  1
 K  K8  1  0.23866  0.73011  0.97199  1
 O  O1  1  0.45185  0.34080  0.70313  1
 O  O2  1  0.22357  0.55313  0.67568  1
 O  O3  1  0.38819  0.03806  0.49907  1
 O  O4  1  0.45185  0.15920  0.20313  1
 O  O5  1  0.77643  0.05313  0.82432  1
 O  O6  1  0.93678  0.84970  0.68212  1
 O  O7  1  0.06322  0.34970  0.81788  1
 O  O8  1  0.61181  0.53806  0.00093  1
 O  O9  1  0.54815  0.84080  0.79687  1
 O  O10  1  0.54815  0.65920  0.29687  1
 O  O11  1  0.61181  0.96194  0.50093  1
 O  O12  1  0.38819  0.46194  -0.00093  1
 O  O13  1  0.06322  0.15030  0.31788  1
 O  O14  1  0.22357  0.94687  0.17568  1
 O  O15  1  0.93678  0.65030  0.18212  1
 O  O16  1  0.77643  0.44687  0.32432  1
 P  P1  1  0.72637  0.92361  0.72194  1
 P  P2  1  0.27363  0.07639  0.27806  1
 P  P3  1  0.72637  0.57639  0.22194  1
 P  P4  1  0.27363  0.42361  0.77806  1
