CIF file written using JARVIS-Tools package.
data_CoMoP2
_symmetry_space_group_name_H-M  'P6_3/mmc'
_cell_length_a       3.29806
_cell_length_b       3.29806
_cell_length_c       11.3661
_cell_angle_alpha    90
_cell_angle_beta     90
_cell_angle_gamma    120

_symmetry_Int_Tables_number  194
_chemical_formula_structural  CoMoP2
_chemical_formula_sum  Co2Mo2P4
_cell_volume  107.06781081062906
_cell_formula_units_Z  2
loop_
  _symmetry_equiv_pos_site_id
 _symmetry_equiv_pos_as_xyz
 1  'x, y, z'
loop_
 _atom_site_type_symbol
 _atom_site_label
 _atom_site_symmetry_multiplicity
 _atom_site_fract_x
 _atom_site_fract_y
 _atom_site_fract_z
 _atom_site_fract_occupancy
 Co  Co1  1  0.00000  0.00000  0.25000  1
 Co  Co2  1  0.00000  0.00000  0.75000  1
 Mo  Mo1  1  0.00000  0.00000  0.00000  1
 Mo  Mo2  1  0.00000  0.00000  0.50000  1
 P  P1  1  0.33333  0.66667  0.14050  1
 P  P2  1  0.66667  0.33333  0.85950  1
 P  P3  1  0.66667  0.33333  0.64050  1
 P  P4  1  0.33333  0.66667  0.35950  1
