CIF file written using JARVIS-Tools package.
data_TiAlF5
_symmetry_space_group_name_H-M  'Immm'
_cell_length_a       5.266
_cell_length_b       5.266
_cell_length_c       5.266
_cell_angle_alpha    139.977
_cell_angle_beta     107.15
_cell_angle_gamma    86.5225

_symmetry_Int_Tables_number  71
_chemical_formula_structural  TiAlF5
_chemical_formula_sum  TiAlF5
_cell_volume  86.43496843010266
_cell_formula_units_Z  1
loop_
  _symmetry_equiv_pos_site_id
 _symmetry_equiv_pos_as_xyz
 1  'x, y, z'
loop_
 _atom_site_type_symbol
 _atom_site_label
 _atom_site_symmetry_multiplicity
 _atom_site_fract_x
 _atom_site_fract_y
 _atom_site_fract_z
 _atom_site_fract_occupancy
 Al  Al1  1  0.50000  0.50000  0.00000  1
 F  F1  1  0.79572  0.50000  0.29572  1
 F  F2  1  0.20428  0.50000  0.70428  1
 F  F3  1  0.26656  0.26656  0.00000  1
 F  F4  1  0.73344  0.73344  -0.00000  1
 F  F5  1  0.50000  0.00000  0.50000  1
 Ti  Ti1  1  0.00000  0.00000  0.00000  1
