CIF file written using JARVIS-Tools package.
data_SmSbO4
_symmetry_space_group_name_H-M  'P2_1/c'
_cell_length_a       7.65252
_cell_length_b       5.48786
_cell_length_c       7.68075
_cell_angle_alpha    90
_cell_angle_beta     99.2515
_cell_angle_gamma    90

_symmetry_Int_Tables_number  14
_chemical_formula_structural  SmSbO4
_chemical_formula_sum  Sm4Sb4O6
_cell_volume  318.3650902650837
_cell_formula_units_Z  4
loop_
  _symmetry_equiv_pos_site_id
 _symmetry_equiv_pos_as_xyz
 1  'x, y, z'
loop_
 _atom_site_type_symbol
 _atom_site_label
 _atom_site_symmetry_multiplicity
 _atom_site_fract_x
 _atom_site_fract_y
 _atom_site_fract_z
 _atom_site_fract_occupancy
 O  O1  1  0.12455  0.00044  0.17202  1
 O  O2  1  0.32756  0.97996  0.88280  1
 O  O3  1  0.17244  0.47996  0.11720  1
 O  O4  1  0.67244  0.02004  0.11720  1
 O  O5  1  0.19488  0.09384  0.56574  1
 O  O6  1  0.05929  0.62742  0.66812  1
 O  O7  1  0.44071  0.12742  0.33188  1
 O  O8  1  0.82756  0.52004  0.88280  1
 O  O9  1  0.55929  0.87258  0.66812  1
 O  O10  1  0.87545  -0.00044  0.82798  1
 O  O11  1  0.62455  0.49956  0.17202  1
 O  O12  1  0.30512  0.59384  0.43426  1
 O  O13  1  0.37545  0.50044  0.82798  1
 O  O14  1  0.80512  0.90616  0.43426  1
 O  O15  1  0.69488  0.40616  0.56574  1
 O  O16  1  0.94071  0.37258  0.33188  1
 Sb  Sb1  1  0.80518  0.73026  0.66293  1
 Sb  Sb2  1  0.69482  0.23026  0.33707  1
 Sb  Sb3  1  0.19482  0.26974  0.33707  1
 Sb  Sb4  1  0.30518  0.76974  0.66293  1
 Sm  Sm1  1  0.60460  0.22637  0.85364  1
 Sm  Sm2  1  0.89540  0.72637  0.14636  1
 Sm  Sm3  1  0.39540  0.77363  0.14636  1
 Sm  Sm4  1  0.10460  0.27363  0.85364  1
