CIF file written using JARVIS-Tools package.
data_K3SnSb3
_symmetry_space_group_name_H-M  'Cm'
_cell_length_a       9.1091
_cell_length_b       9.10909
_cell_length_c       6.93866
_cell_angle_alpha    84.8436
_cell_angle_beta     84.8436
_cell_angle_gamma    27.6294

_symmetry_Int_Tables_number  8
_chemical_formula_structural  K3SnSb3
_chemical_formula_sum  K3SnSb3
_cell_volume  265.8530864848962
_cell_formula_units_Z  1
loop_
  _symmetry_equiv_pos_site_id
 _symmetry_equiv_pos_as_xyz
 1  'x, y, z'
loop_
 _atom_site_type_symbol
 _atom_site_label
 _atom_site_symmetry_multiplicity
 _atom_site_fract_x
 _atom_site_fract_y
 _atom_site_fract_z
 _atom_site_fract_occupancy
 K  K1  1  0.00193  0.00193  0.99633  1
 K  K2  1  0.70606  0.70606  0.75170  1
 K  K3  1  0.28898  0.28898  0.25573  1
 Sb  Sb1  1  0.36976  0.36976  0.75254  1
 Sb  Sb2  1  0.62567  0.62567  0.24070  1
 Sb  Sb3  1  0.92063  0.92063  0.49177  1
 Sn  Sn1  1  0.08696  0.08696  0.51123  1
