CIF file written using JARVIS-Tools package.
data_Li2CrCoO4
_symmetry_space_group_name_H-M  'I-4m2'
_cell_length_a       5.07275
_cell_length_b       5.07275
_cell_length_c       5.07274
_cell_angle_alpha    133.959
_cell_angle_beta     133.959
_cell_angle_gamma    67.1513

_symmetry_Int_Tables_number  119
_chemical_formula_structural  Li2CrCoO4
_chemical_formula_sum  Li2CrCoO4
_cell_volume  66.52676535317693
_cell_formula_units_Z  1
loop_
  _symmetry_equiv_pos_site_id
 _symmetry_equiv_pos_as_xyz
 1  'x, y, z'
loop_
 _atom_site_type_symbol
 _atom_site_label
 _atom_site_symmetry_multiplicity
 _atom_site_fract_x
 _atom_site_fract_y
 _atom_site_fract_z
 _atom_site_fract_occupancy
 Co  Co1  1  0.00000  0.00000  0.00000  1
 Cr  Cr1  1  0.75000  0.25000  0.50000  1
 Li  Li1  1  0.25000  0.75000  0.50000  1
 Li  Li2  1  0.50000  0.50000  0.00000  1
 O  O1  1  0.51909  0.01909  0.50000  1
 O  O2  1  0.23064  0.23064  0.00000  1
 O  O3  1  0.98091  0.48091  0.50000  1
 O  O4  1  0.76936  0.76936  -0.00000  1
