CIF file written using JARVIS-Tools package.
data_KNiP3O9
_symmetry_space_group_name_H-M  'R3'
_cell_length_a       6.27065
_cell_length_b       6.27066
_cell_length_c       6.27065
_cell_angle_alpha    107.084
_cell_angle_beta     107.084
_cell_angle_gamma    107.084

_symmetry_Int_Tables_number  146
_chemical_formula_structural  KNiP3O9
_chemical_formula_sum  KNiP3O9
_cell_volume  204.87099535297492
_cell_formula_units_Z  1
loop_
  _symmetry_equiv_pos_site_id
 _symmetry_equiv_pos_as_xyz
 1  'x, y, z'
loop_
 _atom_site_type_symbol
 _atom_site_label
 _atom_site_symmetry_multiplicity
 _atom_site_fract_x
 _atom_site_fract_y
 _atom_site_fract_z
 _atom_site_fract_occupancy
 K  K1  1  0.49509  0.49509  0.49509  1
 Ni  Ni1  1  0.00308  0.00308  0.00308  1
 O  O1  1  0.36866  0.10206  0.07398  1
 O  O2  1  0.07398  0.36866  0.10206  1
 O  O3  1  0.26955  0.86406  0.62343  1
 O  O4  1  0.89554  0.94524  0.63950  1
 O  O5  1  0.94524  0.63950  0.89554  1
 O  O6  1  0.86406  0.62343  0.26955  1
 O  O7  1  0.63950  0.89554  0.94524  1
 O  O8  1  0.10206  0.07398  0.36866  1
 O  O9  1  0.62343  0.26955  0.86406  1
 P  P1  1  0.02769  0.89878  0.47914  1
 P  P2  1  0.89878  0.47914  0.02769  1
 P  P3  1  0.47914  0.02769  0.89878  1
