CIF file written using JARVIS-Tools package.
data_NdCrS2O
_symmetry_space_group_name_H-M  'C2/m'
_cell_length_a       6.03922
_cell_length_b       6.03922
_cell_length_c       7.92153
_cell_angle_alpha    89.7165
_cell_angle_beta     89.7165
_cell_angle_gamma    35.653

_symmetry_Int_Tables_number  12
_chemical_formula_structural  NdCrS2O
_chemical_formula_sum  Nd2Cr2S4O2
_cell_volume  168.39945786991683
_cell_formula_units_Z  2
loop_
  _symmetry_equiv_pos_site_id
 _symmetry_equiv_pos_as_xyz
 1  'x, y, z'
loop_
 _atom_site_type_symbol
 _atom_site_label
 _atom_site_symmetry_multiplicity
 _atom_site_fract_x
 _atom_site_fract_y
 _atom_site_fract_z
 _atom_site_fract_occupancy
 Cr  Cr1  1  -0.00000  -0.00000  0.50000  1
 Cr  Cr2  1  0.50000  0.50000  0.00000  1
 Nd  Nd1  1  0.26548  0.26548  0.29241  1
 Nd  Nd2  1  0.73452  0.73452  0.70759  1
 O  O1  1  0.83464  0.83464  0.43951  1
 O  O2  1  0.16536  0.16536  0.56049  1
 S  S1  1  0.13558  0.13558  0.97109  1
 S  S2  1  0.45577  0.45577  0.69879  1
 S  S3  1  0.54423  0.54423  0.30121  1
 S  S4  1  0.86442  0.86442  0.02891  1
