CIF file written using JARVIS-Tools package.
data_Hg2AsCl2
_symmetry_space_group_name_H-M  'C2/m'
_cell_length_a       8.24338
_cell_length_b       8.24338
_cell_length_c       8.97081
_cell_angle_alpha    83.6457
_cell_angle_beta     83.6457
_cell_angle_gamma    61.1344

_symmetry_Int_Tables_number  12
_chemical_formula_structural  Hg2AsCl2
_chemical_formula_sum  Hg8As4Cl8
_cell_volume  529.4280005796069
_cell_formula_units_Z  4
loop_
  _symmetry_equiv_pos_site_id
 _symmetry_equiv_pos_as_xyz
 1  'x, y, z'
loop_
 _atom_site_type_symbol
 _atom_site_label
 _atom_site_symmetry_multiplicity
 _atom_site_fract_x
 _atom_site_fract_y
 _atom_site_fract_z
 _atom_site_fract_occupancy
 As  As1  1  0.44370  0.44370  0.90810  1
 As  As2  1  0.04267  0.04267  0.61062  1
 As  As3  1  0.55630  0.55630  0.09190  1
 As  As4  1  0.95733  0.95733  0.38938  1
 Cl  Cl1  1  0.45667  0.00564  0.26098  1
 Cl  Cl2  1  0.99436  0.54333  0.73902  1
 Cl  Cl3  1  0.89051  0.89051  0.01550  1
 Cl  Cl4  1  0.10949  0.10949  0.98450  1
 Cl  Cl5  1  0.39221  0.39221  0.47868  1
 Cl  Cl6  1  0.60779  0.60779  0.52132  1
 Cl  Cl7  1  0.54333  0.99436  0.73902  1
 Cl  Cl8  1  0.00564  0.45667  0.26098  1
 Hg  Hg1  1  0.78063  0.78063  0.48152  1
 Hg  Hg2  1  0.73478  0.22922  0.75628  1
 Hg  Hg3  1  0.77078  0.26522  0.24372  1
 Hg  Hg4  1  0.26522  0.77078  0.24372  1
 Hg  Hg5  1  0.22922  0.73478  0.75628  1
 Hg  Hg6  1  0.27613  0.27613  0.04322  1
 Hg  Hg7  1  0.72387  0.72387  0.95678  1
 Hg  Hg8  1  0.21937  0.21937  0.51848  1
