CIF file written using JARVIS-Tools package.
data_LuPS4
_symmetry_space_group_name_H-M  'P2_1/c'
_cell_length_a       8.13549
_cell_length_b       6.44749
_cell_length_c       12.5197
_cell_angle_alpha    90
_cell_angle_beta     122.799
_cell_angle_gamma    90

_symmetry_Int_Tables_number  14
_chemical_formula_structural  LuPS4
_chemical_formula_sum  Lu4P4S6
_cell_volume  552.0104681456769
_cell_formula_units_Z  4
loop_
  _symmetry_equiv_pos_site_id
 _symmetry_equiv_pos_as_xyz
 1  'x, y, z'
loop_
 _atom_site_type_symbol
 _atom_site_label
 _atom_site_symmetry_multiplicity
 _atom_site_fract_x
 _atom_site_fract_y
 _atom_site_fract_z
 _atom_site_fract_occupancy
 Lu  Lu1  1  0.56148  0.32603  0.16663  1
 Lu  Lu2  1  0.43852  0.82603  0.33337  1
 Lu  Lu3  1  0.43852  0.67397  0.83337  1
 Lu  Lu4  1  0.56148  0.17397  0.66663  1
 P  P1  1  0.70239  0.22565  0.96732  1
 P  P2  1  0.29761  0.72565  0.53268  1
 P  P3  1  0.29761  0.77435  0.03268  1
 P  P4  1  0.70239  0.27435  0.46732  1
 S  S1  1  0.41180  0.23302  0.41062  1
 S  S2  1  0.58820  0.73302  0.08938  1
 S  S3  1  0.58820  0.76698  0.58938  1
 S  S4  1  0.24428  0.94605  0.63034  1
 S  S5  1  0.87614  0.25459  0.65789  1
 S  S6  1  0.12386  0.75459  0.84211  1
 S  S7  1  0.41180  0.26698  0.91062  1
 S  S8  1  0.26444  0.45339  0.60771  1
 S  S9  1  0.73556  0.54661  0.39229  1
 S  S10  1  0.26444  0.04661  0.10771  1
 S  S11  1  0.12386  0.74541  0.34211  1
 S  S12  1  0.73556  0.95339  0.89229  1
 S  S13  1  0.75572  0.05395  0.36966  1
 S  S14  1  0.24428  0.55395  0.13034  1
 S  S15  1  0.87614  0.24541  0.15789  1
 S  S16  1  0.75572  0.44605  0.86966  1
