CIF file written using JARVIS-Tools package.
data_Nb2Zn3O8
_symmetry_space_group_name_H-M  'C2/c'
_cell_length_a       5.26915
_cell_length_b       5.9559
_cell_length_c       10.0769
_cell_angle_alpha    107.189
_cell_angle_beta     90.3878
_cell_angle_gamma    90

_symmetry_Int_Tables_number  15
_chemical_formula_structural  Nb2Zn3O8
_chemical_formula_sum  Nb4Zn6O6
_cell_volume  302.1075405150244
_cell_formula_units_Z  2
loop_
  _symmetry_equiv_pos_site_id
 _symmetry_equiv_pos_as_xyz
 1  'x, y, z'
loop_
 _atom_site_type_symbol
 _atom_site_label
 _atom_site_symmetry_multiplicity
 _atom_site_fract_x
 _atom_site_fract_y
 _atom_site_fract_z
 _atom_site_fract_occupancy
 Nb  Nb1  1  0.76239  0.27791  0.22838  1
 Nb  Nb2  1  0.23761  0.72209  0.77162  1
 Nb  Nb3  1  0.26239  0.95047  0.22838  1
 Nb  Nb4  1  0.73761  0.04953  0.77162  1
 O  O1  1  0.58485  0.32004  0.88311  1
 O  O2  1  0.08485  0.56307  0.88311  1
 O  O3  1  0.41515  0.67996  0.11689  1
 O  O4  1  0.57655  0.81659  0.86322  1
 O  O5  1  0.92345  0.95336  0.13678  1
 O  O6  1  0.42345  0.18341  0.13678  1
 O  O7  1  0.07655  0.04664  0.86322  1
 O  O8  1  0.63180  0.54893  0.38629  1
 O  O9  1  0.86820  0.16264  0.61371  1
 O  O10  1  0.44027  0.92228  0.64104  1
 O  O11  1  0.94027  0.71876  0.64104  1
 O  O12  1  0.05973  0.28124  0.35896  1
 O  O13  1  0.13180  0.83736  0.38629  1
 O  O14  1  0.36820  0.45107  0.61371  1
 O  O15  1  0.91515  0.43693  0.11689  1
 O  O16  1  0.55973  0.07772  0.35896  1
 Zn  Zn1  1  0.25000  0.34698  0.00000  1
 Zn  Zn2  1  0.75000  0.65302  -0.00000  1
 Zn  Zn3  1  0.23691  0.12559  0.56069  1
 Zn  Zn4  1  0.26309  0.56490  0.43931  1
 Zn  Zn5  1  0.73691  0.43510  0.56069  1
 Zn  Zn6  1  0.76309  0.87441  0.43931  1
