CIF file written using JARVIS-Tools package.
data_BaCl2
_symmetry_space_group_name_H-M  'Pnma'
_cell_length_a       4.73392
_cell_length_b       7.87522
_cell_length_c       9.49707
_cell_angle_alpha    90
_cell_angle_beta     90
_cell_angle_gamma    90

_symmetry_Int_Tables_number  62
_chemical_formula_structural  BaCl2
_chemical_formula_sum  Ba4Cl8
_cell_volume  354.05727243136573
_cell_formula_units_Z  4
loop_
  _symmetry_equiv_pos_site_id
 _symmetry_equiv_pos_as_xyz
 1  'x, y, z'
loop_
 _atom_site_type_symbol
 _atom_site_label
 _atom_site_symmetry_multiplicity
 _atom_site_fract_x
 _atom_site_fract_y
 _atom_site_fract_z
 _atom_site_fract_occupancy
 Ba  Ba1  1  0.25000  0.74861  0.61905  1
 Ba  Ba2  1  0.75000  0.25139  0.38095  1
 Ba  Ba3  1  0.25000  0.24861  0.88095  1
 Ba  Ba4  1  0.75000  0.75139  0.11905  1
 Cl  Cl1  1  0.25000  0.53043  0.32849  1
 Cl  Cl2  1  0.75000  0.46957  0.67151  1
 Cl  Cl3  1  0.25000  0.03043  0.17151  1
 Cl  Cl4  1  0.75000  0.96957  0.82849  1
 Cl  Cl5  1  0.75000  0.85635  0.43080  1
 Cl  Cl6  1  0.25000  0.14365  0.56920  1
 Cl  Cl7  1  0.75000  0.35635  0.06920  1
 Cl  Cl8  1  0.25000  0.64365  0.93080  1
