CIF file written using JARVIS-Tools package.
data_CrFe3B2
_symmetry_space_group_name_H-M  'Fmm2'
_cell_length_a       5.0435
_cell_length_b       4.17319
_cell_length_c       4.0725
_cell_angle_alpha    75.4073
_cell_angle_beta     53.2014
_cell_angle_gamma    51.3915

_symmetry_Int_Tables_number  42
_chemical_formula_structural  CrFe3B2
_chemical_formula_sum  CrFe3B2
_cell_volume  52.60818561392903
_cell_formula_units_Z  1
loop_
  _symmetry_equiv_pos_site_id
 _symmetry_equiv_pos_as_xyz
 1  'x, y, z'
loop_
 _atom_site_type_symbol
 _atom_site_label
 _atom_site_symmetry_multiplicity
 _atom_site_fract_x
 _atom_site_fract_y
 _atom_site_fract_z
 _atom_site_fract_occupancy
 B  B1  1  0.75267  0.74733  0.75267  1
 B  B2  1  0.25267  0.24733  0.25267  1
 Cr  Cr1  1  0.15792  0.84208  0.15792  1
 Fe  Fe1  1  0.83593  0.16407  0.83593  1
 Fe  Fe2  1  0.66203  0.66122  0.33878  1
 Fe  Fe3  1  0.33878  0.33797  0.66203  1
