CIF file written using JARVIS-Tools package.
data_Zn3Ge3Sb2O12
_symmetry_space_group_name_H-M  'Ia-3d'
_cell_length_a       10.9337
_cell_length_b       10.9337
_cell_length_c       10.9337
_cell_angle_alpha    109.471
_cell_angle_beta     109.471
_cell_angle_gamma    109.471

_symmetry_Int_Tables_number  230
_chemical_formula_structural  Zn3Ge3Sb2O12
_chemical_formula_sum  Zn2Ge2Sb8O48
_cell_volume  1006.1949299866012
_cell_formula_units_Z  4
loop_
  _symmetry_equiv_pos_site_id
 _symmetry_equiv_pos_as_xyz
 1  'x, y, z'
loop_
 _atom_site_type_symbol
 _atom_site_label
 _atom_site_symmetry_multiplicity
 _atom_site_fract_x
 _atom_site_fract_y
 _atom_site_fract_z
 _atom_site_fract_occupancy
 Ge  Ge1  1  0.87500  0.12500  0.75000  1
 Ge  Ge2  1  0.37500  0.25000  0.62500  1
 Ge  Ge3  1  0.25000  0.62500  0.37500  1
 Ge  Ge4  1  0.12500  0.75000  0.87500  1
 Ge  Ge5  1  0.75000  0.87500  0.12500  1
 Ge  Ge6  1  0.12500  0.87500  0.25000  1
 Ge  Ge7  1  0.62500  0.75000  0.37500  1
 Ge  Ge8  1  0.25000  0.12500  0.87500  1
 Ge  Ge9  1  0.75000  0.37500  0.62500  1
 Ge  Ge10  1  0.37500  0.62500  0.75000  1
 Ge  Ge11  1  0.87500  0.25000  0.12500  1
 Ge  Ge12  1  0.62500  0.37500  0.25000  1
 O  O1  1  0.77358  0.40739  0.80585  1
 O  O2  1  0.72642  0.69415  0.09261  1
 O  O3  1  0.80585  0.77358  0.40739  1
 O  O4  1  0.63381  0.72642  0.53227  1
 O  O5  1  0.77358  0.86619  0.96773  1
 O  O6  1  0.59261  0.19415  0.22642  1
 O  O7  1  0.03227  0.22642  0.13381  1
 O  O8  1  0.90739  0.27358  0.30585  1
 O  O9  1  0.36619  0.59261  0.89846  1
 O  O10  1  0.46773  0.60154  0.19415  1
 O  O11  1  0.69415  0.10154  0.96773  1
 O  O12  1  0.30585  0.90739  0.27358  1
 O  O13  1  0.72642  0.53227  0.63381  1
 O  O14  1  0.09261  0.86619  0.39846  1
 O  O15  1  0.53227  0.63381  0.72642  1
 O  O16  1  0.22642  0.13381  0.03227  1
 O  O17  1  0.13381  0.03227  0.22642  1
 O  O18  1  0.96773  0.69415  0.10154  1
 O  O19  1  0.60154  0.19415  0.46773  1
 O  O20  1  0.10154  0.96773  0.69415  1
 O  O21  1  0.39846  0.09261  0.86619  1
 O  O22  1  0.80585  0.53227  0.39846  1
 O  O23  1  0.40739  0.10154  0.63381  1
 O  O24  1  0.10154  0.63381  0.40739  1
 O  O25  1  0.69415  0.09261  0.72642  1
 O  O26  1  0.63381  0.40739  0.10154  1
 O  O27  1  0.09261  0.72642  0.69415  1
 O  O28  1  0.96773  0.77358  0.86619  1
 O  O29  1  0.59261  0.89846  0.36619  1
 O  O30  1  0.86619  0.96773  0.77358  1
 O  O31  1  0.39846  0.80585  0.53227  1
 O  O32  1  0.53227  0.39846  0.80585  1
 O  O33  1  0.19415  0.46773  0.60154  1
 O  O34  1  0.40739  0.80585  0.77358  1
 O  O35  1  0.89846  0.03227  0.30585  1
 O  O36  1  0.90739  0.13381  0.60154  1
 O  O37  1  0.30585  0.89846  0.03227  1
 O  O38  1  0.27358  0.46773  0.36619  1
 O  O39  1  0.27358  0.30585  0.90739  1
 O  O40  1  0.89846  0.36619  0.59261  1
 O  O41  1  0.46773  0.36619  0.27358  1
 O  O42  1  0.86619  0.39846  0.09261  1
 O  O43  1  0.13381  0.60154  0.90739  1
 O  O44  1  0.19415  0.22642  0.59261  1
 O  O45  1  0.03227  0.30585  0.89846  1
 O  O46  1  0.22642  0.59261  0.19415  1
 O  O47  1  0.36619  0.27358  0.46773  1
 O  O48  1  0.60154  0.90739  0.13381  1
 Sb  Sb1  1  0.00000  0.50000  -0.00000  1
 Sb  Sb2  1  0.00000  0.00000  0.50000  1
 Sb  Sb3  1  0.00000  0.00000  0.00000  1
 Sb  Sb4  1  0.00000  0.50000  0.50000  1
 Sb  Sb5  1  0.50000  0.00000  0.50000  1
 Sb  Sb6  1  0.50000  0.50000  -0.00000  1
 Sb  Sb7  1  0.50000  0.50000  0.50000  1
 Sb  Sb8  1  0.50000  0.00000  -0.00000  1
 Zn  Zn1  1  0.62500  0.87500  0.75000  1
 Zn  Zn2  1  0.87500  0.75000  0.62500  1
 Zn  Zn3  1  0.75000  0.62500  0.87500  1
 Zn  Zn4  1  0.25000  0.87500  0.62500  1
 Zn  Zn5  1  0.87500  0.62500  0.25000  1
 Zn  Zn6  1  0.25000  0.37500  0.12500  1
 Zn  Zn7  1  0.37500  0.75000  0.12500  1
 Zn  Zn8  1  0.12500  0.25000  0.37500  1
 Zn  Zn9  1  0.75000  0.12500  0.37500  1
 Zn  Zn10  1  0.12500  0.37500  0.75000  1
 Zn  Zn11  1  0.37500  0.12500  0.25000  1
 Zn  Zn12  1  0.62500  0.25000  0.87500  1
