CIF file written using JARVIS-Tools package.
data_Ta3TeI7
_symmetry_space_group_name_H-M  'P6_3mc'
_cell_length_a       7.65408
_cell_length_b       7.65408
_cell_length_c       14.0802
_cell_angle_alpha    90
_cell_angle_beta     90
_cell_angle_gamma    120

_symmetry_Int_Tables_number  186
_chemical_formula_structural  Ta3TeI7
_chemical_formula_sum  Ta6Te2I4
_cell_volume  714.3769927212961
_cell_formula_units_Z  2
loop_
  _symmetry_equiv_pos_site_id
 _symmetry_equiv_pos_as_xyz
 1  'x, y, z'
loop_
 _atom_site_type_symbol
 _atom_site_label
 _atom_site_symmetry_multiplicity
 _atom_site_fract_x
 _atom_site_fract_y
 _atom_site_fract_z
 _atom_site_fract_occupancy
 I  I1  1  0.66116  0.83058  0.11812  1
 I  I2  1  0.49823  0.99647  0.35962  1
 I  I3  1  0.50177  0.00353  0.85962  1
 I  I4  1  0.33884  0.16942  0.61812  1
 I  I5  1  0.49823  0.50177  0.35962  1
 I  I6  1  0.00353  0.50177  0.35962  1
 I  I7  1  0.99647  0.49823  0.85962  1
 I  I8  1  0.33333  0.66667  0.64479  1
 I  I9  1  0.66667  0.33333  0.14479  1
 I  I10  1  0.83058  0.16942  0.61812  1
 I  I11  1  0.16942  0.83058  0.11812  1
 I  I12  1  0.16942  0.33884  0.11812  1
 I  I13  1  0.83058  0.66116  0.61812  1
 I  I14  1  0.50177  0.49823  0.85962  1
 Ta  Ta1  1  0.86949  0.13051  0.25011  1
 Ta  Ta2  1  0.73899  0.86949  0.75011  1
 Ta  Ta3  1  0.13051  0.26101  0.75011  1
 Ta  Ta4  1  0.86949  0.73899  0.25011  1
 Ta  Ta5  1  0.26101  0.13051  0.25011  1
 Ta  Ta6  1  0.13051  0.86949  0.75011  1
 Te  Te1  1  0.00000  0.00000  0.40040  1
 Te  Te2  1  0.00000  0.00000  0.90040  1
