CIF file written using JARVIS-Tools package.
data_TiZn2WO6
_symmetry_space_group_name_H-M  'R3'
_cell_length_a       5.23971
_cell_length_b       5.23971
_cell_length_c       5.50429
_cell_angle_alpha    61.5807
_cell_angle_beta     61.5817
_cell_angle_gamma    60.0031

_symmetry_Int_Tables_number  146
_chemical_formula_structural  TiZn2WO6
_chemical_formula_sum  TiZn2WO6
_cell_volume  109.34215850120921
_cell_formula_units_Z  1
loop_
  _symmetry_equiv_pos_site_id
 _symmetry_equiv_pos_as_xyz
 1  'x, y, z'
loop_
 _atom_site_type_symbol
 _atom_site_label
 _atom_site_symmetry_multiplicity
 _atom_site_fract_x
 _atom_site_fract_y
 _atom_site_fract_z
 _atom_site_fract_occupancy
 O  O1  1  0.90084  0.60778  0.24188  1
 O  O2  1  0.14293  0.35518  0.74084  1
 O  O3  1  0.64785  0.22973  0.24186  1
 O  O4  1  0.78127  0.10288  0.74086  1
 O  O5  1  0.26981  0.86077  0.24187  1
 O  O6  1  0.39523  0.74126  0.74086  1
 Ti  Ti1  1  0.52224  0.48219  0.49357  1
 W  W1  1  0.02075  -0.01930  -0.00195  1
 Zn  Zn1  1  0.25271  0.21266  0.30218  1
 Zn  Zn2  1  0.77021  0.73014  0.74968  1
