CIF file written using JARVIS-Tools package.
data_RbAlAs2O7
_symmetry_space_group_name_H-M  'P-1'
_cell_length_a       6.31163
_cell_length_b       6.40307
_cell_length_c       8.28904
_cell_angle_alpha    96.2218
_cell_angle_beta     104.458
_cell_angle_gamma    102.746

_symmetry_Int_Tables_number  2
_chemical_formula_structural  RbAlAs2O7
_chemical_formula_sum  Rb2Al2As4O4
_cell_volume  311.61406027617613
_cell_formula_units_Z  2
loop_
  _symmetry_equiv_pos_site_id
 _symmetry_equiv_pos_as_xyz
 1  'x, y, z'
loop_
 _atom_site_type_symbol
 _atom_site_label
 _atom_site_symmetry_multiplicity
 _atom_site_fract_x
 _atom_site_fract_y
 _atom_site_fract_z
 _atom_site_fract_occupancy
 Al  Al1  1  0.62009  0.30994  0.77318  1
 Al  Al2  1  0.37991  0.69006  0.22682  1
 As  As1  1  0.17199  0.46950  0.81248  1
 As  As2  1  0.82801  0.53050  0.18752  1
 As  As3  1  0.50671  0.75463  0.66256  1
 As  As4  1  0.49329  0.24537  0.33744  1
 O  O1  1  0.78370  0.36846  0.34871  1
 O  O2  1  0.33337  0.28822  0.81797  1
 O  O3  1  0.46126  0.25110  0.53440  1
 O  O4  1  0.22236  0.65074  0.98980  1
 O  O5  1  0.32747  0.38308  0.21992  1
 O  O6  1  0.09771  0.68514  0.27312  1
 O  O7  1  0.57261  0.00708  0.77546  1
 O  O8  1  0.77764  0.34926  0.01020  1
 O  O9  1  0.66663  0.71178  0.18203  1
 O  O10  1  0.53874  0.74890  0.46560  1
 O  O11  1  0.90229  0.31486  0.72688  1
 O  O12  1  0.67253  0.61692  0.78008  1
 O  O13  1  0.21630  0.63154  0.65129  1
 O  O14  1  0.42739  0.99292  0.22454  1
 Rb  Rb1  1  0.00000  0.00000  0.50000  1
 Rb  Rb2  1  0.00000  0.00000  0.00000  1
