CIF file written using JARVIS-Tools package.
data_SnPbS2
_symmetry_space_group_name_H-M  'Pmc2_1'
_cell_length_a       4.12446
_cell_length_b       4.33329
_cell_length_c       11.6305
_cell_angle_alpha    90
_cell_angle_beta     90
_cell_angle_gamma    90

_symmetry_Int_Tables_number  26
_chemical_formula_structural  SnPbS2
_chemical_formula_sum  Sn2Pb2S4
_cell_volume  207.86575040114082
_cell_formula_units_Z  2
loop_
  _symmetry_equiv_pos_site_id
 _symmetry_equiv_pos_as_xyz
 1  'x, y, z'
loop_
 _atom_site_type_symbol
 _atom_site_label
 _atom_site_symmetry_multiplicity
 _atom_site_fract_x
 _atom_site_fract_y
 _atom_site_fract_z
 _atom_site_fract_occupancy
 Pb  Pb1  1  0.00000  0.12742  0.61705  1
 Pb  Pb2  1  0.00000  0.87258  0.11705  1
 S  S1  1  0.00000  0.21588  0.85837  1
 S  S2  1  0.00000  0.78412  0.35837  1
 S  S3  1  0.50000  0.31196  0.15104  1
 S  S4  1  0.50000  0.68804  0.65104  1
 Sn  Sn1  1  0.50000  0.38189  0.37354  1
 Sn  Sn2  1  0.50000  0.61811  0.87354  1
