CIF file written using JARVIS-Tools package.
data_CeGaNi4
_symmetry_space_group_name_H-M  'Cmmm'
_cell_length_a       4.87777
_cell_length_b       4.87777
_cell_length_c       4.06624
_cell_angle_alpha    90
_cell_angle_beta     90
_cell_angle_gamma    117.792

_symmetry_Int_Tables_number  65
_chemical_formula_structural  CeGaNi4
_chemical_formula_sum  CeGaNi4
_cell_volume  85.58614396761841
_cell_formula_units_Z  1
loop_
  _symmetry_equiv_pos_site_id
 _symmetry_equiv_pos_as_xyz
 1  'x, y, z'
loop_
 _atom_site_type_symbol
 _atom_site_label
 _atom_site_symmetry_multiplicity
 _atom_site_fract_x
 _atom_site_fract_y
 _atom_site_fract_z
 _atom_site_fract_occupancy
 Ce  Ce1  1  0.00000  0.00000  0.00000  1
 Ga  Ga1  1  0.50000  0.50000  0.50000  1
 Ni  Ni1  1  0.67126  0.32874  0.00000  1
 Ni  Ni2  1  0.32874  0.67126  0.00000  1
 Ni  Ni3  1  0.50000  0.00000  0.50000  1
 Ni  Ni4  1  -0.00000  0.50000  0.50000  1
