CIF file written using JARVIS-Tools package.
data_K2ZrSi2O7
_symmetry_space_group_name_H-M  'P2_1/c'
_cell_length_a       9.62976
_cell_length_b       5.61651
_cell_length_c       14.2237
_cell_angle_alpha    90
_cell_angle_beta     117.689
_cell_angle_gamma    90

_symmetry_Int_Tables_number  14
_chemical_formula_structural  K2ZrSi2O7
_chemical_formula_sum  K8Zr4Si8O28
_cell_volume  681.1988146325467
_cell_formula_units_Z  4
loop_
  _symmetry_equiv_pos_site_id
 _symmetry_equiv_pos_as_xyz
 1  'x, y, z'
loop_
 _atom_site_type_symbol
 _atom_site_label
 _atom_site_symmetry_multiplicity
 _atom_site_fract_x
 _atom_site_fract_y
 _atom_site_fract_z
 _atom_site_fract_occupancy
 K  K1  1  0.03904  0.75438  0.42852  1
 K  K2  1  0.52566  0.24589  0.40707  1
 K  K3  1  0.96096  0.25438  0.07148  1
 K  K4  1  0.03904  0.74562  0.92852  1
 K  K5  1  0.96096  0.24562  0.57148  1
 K  K6  1  0.47434  0.75411  0.59293  1
 K  K7  1  0.47434  0.74589  0.09293  1
 K  K8  1  0.52566  0.25411  0.90707  1
 O  O1  1  0.21565  0.52933  0.33684  1
 O  O2  1  0.79392  0.55638  0.19868  1
 O  O3  1  0.52162  0.24595  0.69431  1
 O  O4  1  0.52162  0.25405  0.19431  1
 O  O5  1  0.01275  0.24964  0.87272  1
 O  O6  1  0.75714  0.97865  0.36899  1
 O  O7  1  0.24857  0.50178  0.61387  1
 O  O8  1  0.32451  0.28318  0.99410  1
 O  O9  1  0.75143  0.49822  0.38613  1
 O  O10  1  0.01275  0.25036  0.37272  1
 O  O11  1  0.24286  0.02135  0.63101  1
 O  O12  1  0.78435  0.02933  0.16316  1
 O  O13  1  0.75714  0.52135  0.86899  1
 O  O14  1  0.24857  0.99822  0.11387  1
 O  O15  1  0.24286  0.47865  0.13101  1
 O  O16  1  0.75143  0.00178  0.88613  1
 O  O17  1  0.67549  0.78318  0.50590  1
 O  O18  1  0.47838  0.74595  0.80569  1
 O  O19  1  0.67549  0.71682  0.00590  1
 O  O20  1  0.20608  0.05638  0.30132  1
 O  O21  1  0.98725  0.75036  0.12728  1
 O  O22  1  0.98725  0.74964  0.62728  1
 O  O23  1  0.32451  0.21682  0.49410  1
 O  O24  1  0.47838  0.75405  0.30569  1
 O  O25  1  0.20608  0.44362  0.80132  1
 O  O26  1  0.79392  0.94362  0.69868  1
 O  O27  1  0.78435  0.47067  0.66316  1
 O  O28  1  0.21565  0.97067  0.83684  1
 Si  Si1  1  0.18022  0.26619  0.37076  1
 Si  Si2  1  0.81978  0.73381  0.62924  1
 Si  Si3  1  0.81978  0.76619  0.12924  1
 Si  Si4  1  0.66665  0.75006  0.38612  1
 Si  Si5  1  0.66665  0.74994  0.88612  1
 Si  Si6  1  0.33335  0.24994  0.61388  1
 Si  Si7  1  0.33335  0.25006  0.11388  1
 Si  Si8  1  0.18022  0.23381  0.87076  1
 Zr  Zr1  1  0.76643  0.25874  0.27350  1
 Zr  Zr2  1  0.23357  0.75874  0.22650  1
 Zr  Zr3  1  0.23357  0.74126  0.72650  1
 Zr  Zr4  1  0.76643  0.24126  0.77350  1
