CIF file written using JARVIS-Tools package.
data_V2CuO6
_symmetry_space_group_name_H-M  'P-1'
_cell_length_a       3.57282
_cell_length_b       4.8925
_cell_length_c       6.46903
_cell_angle_alpha    111.241
_cell_angle_beta     86.824
_cell_angle_gamma    109.324

_symmetry_Int_Tables_number  2
_chemical_formula_structural  V2CuO6
_chemical_formula_sum  V2CuO6
_cell_volume  99.19161302559893
_cell_formula_units_Z  1
loop_
  _symmetry_equiv_pos_site_id
 _symmetry_equiv_pos_as_xyz
 1  'x, y, z'
loop_
 _atom_site_type_symbol
 _atom_site_label
 _atom_site_symmetry_multiplicity
 _atom_site_fract_x
 _atom_site_fract_y
 _atom_site_fract_z
 _atom_site_fract_occupancy
 Cu  Cu1  1  0.00000  0.00000  0.00000  1
 O  O1  1  0.98049  0.95088  0.28162  1
 O  O2  1  0.01951  0.04912  0.71838  1
 O  O3  1  0.72362  0.31562  0.10794  1
 O  O4  1  0.27638  0.68438  0.89206  1
 O  O5  1  0.68576  0.38493  0.56793  1
 O  O6  1  0.31424  0.61507  0.43207  1
 V  V1  1  0.82927  0.62317  0.35020  1
 V  V2  1  0.17073  0.37683  0.64980  1
