CIF file written using JARVIS-Tools package.
data_NdGa3B4O12
_symmetry_space_group_name_H-M  'R32'
_cell_length_a       6.08247
_cell_length_b       6.08248
_cell_length_c       6.08248
_cell_angle_alpha    104.059
_cell_angle_beta     104.059
_cell_angle_gamma    104.059

_symmetry_Int_Tables_number  155
_chemical_formula_structural  NdGa3B4O12
_chemical_formula_sum  NdGa3B4O2
_cell_volume  200.55348823288531
_cell_formula_units_Z  1
loop_
  _symmetry_equiv_pos_site_id
 _symmetry_equiv_pos_as_xyz
 1  'x, y, z'
loop_
 _atom_site_type_symbol
 _atom_site_label
 _atom_site_symmetry_multiplicity
 _atom_site_fract_x
 _atom_site_fract_y
 _atom_site_fract_z
 _atom_site_fract_occupancy
 B  B1  1  0.05487  0.50000  0.94513  1
 B  B2  1  0.50000  0.50000  0.50000  1
 B  B3  1  0.50000  0.94513  0.05487  1
 B  B4  1  0.94513  0.05487  0.50000  1
 Ga  Ga1  1  0.44850  -0.00000  0.55150  1
 Ga  Ga2  1  -0.00000  0.55150  0.44850  1
 Ga  Ga3  1  0.55150  0.44850  0.00000  1
 Nd  Nd1  1  0.00000  0.00000  0.00000  1
 O  O1  1  0.62506  0.78585  0.02780  1
 O  O2  1  0.97220  0.21415  0.37494  1
 O  O3  1  0.09025  0.90975  0.50000  1
 O  O4  1  0.90975  0.50000  0.09025  1
 O  O5  1  0.50000  0.09025  0.90975  1
 O  O6  1  0.50000  0.35501  0.64499  1
 O  O7  1  0.02780  0.62506  0.78585  1
 O  O8  1  0.64499  0.50000  0.35501  1
 O  O9  1  0.21415  0.37494  0.97220  1
 O  O10  1  0.35501  0.64499  0.50000  1
 O  O11  1  0.37494  0.97220  0.21415  1
 O  O12  1  0.78585  0.02780  0.62506  1
