CIF file written using JARVIS-Tools package.
data_KAlF4
_symmetry_space_group_name_H-M  'P4/mbm'
_cell_length_a       5.05353
_cell_length_b       5.05353
_cell_length_c       6.2093
_cell_angle_alpha    90
_cell_angle_beta     90
_cell_angle_gamma    90

_symmetry_Int_Tables_number  127
_chemical_formula_structural  KAlF4
_chemical_formula_sum  K2Al2F8
_cell_volume  158.57409762425846
_cell_formula_units_Z  2
loop_
  _symmetry_equiv_pos_site_id
 _symmetry_equiv_pos_as_xyz
 1  'x, y, z'
loop_
 _atom_site_type_symbol
 _atom_site_label
 _atom_site_symmetry_multiplicity
 _atom_site_fract_x
 _atom_site_fract_y
 _atom_site_fract_z
 _atom_site_fract_occupancy
 Al  Al1  1  0.50000  0.50000  0.00000  1
 Al  Al2  1  0.00000  0.00000  0.00000  1
 F  F1  1  0.69117  0.19117  0.00000  1
 F  F2  1  0.80883  0.69117  0.00000  1
 F  F3  1  0.19117  0.30883  0.00000  1
 F  F4  1  0.30883  0.80883  0.00000  1
 F  F5  1  0.00000  0.00000  0.28819  1
 F  F6  1  0.50000  0.50000  0.71181  1
 F  F7  1  0.00000  0.00000  0.71181  1
 F  F8  1  0.50000  0.50000  0.28819  1
 K  K1  1  0.50000  0.00000  0.50000  1
 K  K2  1  0.00000  0.50000  0.50000  1
