CIF file written using JARVIS-Tools package.
data_MnPPd
_symmetry_space_group_name_H-M  'P-62m'
_cell_length_a       6.38036
_cell_length_b       6.38036
_cell_length_c       3.62338
_cell_angle_alpha    90
_cell_angle_beta     90
_cell_angle_gamma    120

_symmetry_Int_Tables_number  189
_chemical_formula_structural  MnPPd
_chemical_formula_sum  Mn3P3Pd3
_cell_volume  127.7421999087351
_cell_formula_units_Z  3
loop_
  _symmetry_equiv_pos_site_id
 _symmetry_equiv_pos_as_xyz
 1  'x, y, z'
loop_
 _atom_site_type_symbol
 _atom_site_label
 _atom_site_symmetry_multiplicity
 _atom_site_fract_x
 _atom_site_fract_y
 _atom_site_fract_z
 _atom_site_fract_occupancy
 Mn  Mn1  1  0.60289  0.00000  0.00000  1
 Mn  Mn2  1  0.00000  0.60289  0.00000  1
 Mn  Mn3  1  0.39711  0.39711  0.00000  1
 P  P1  1  0.33333  0.66667  0.50000  1
 P  P2  1  0.66667  0.33333  0.50000  1
 P  P3  1  0.00000  0.00000  0.00000  1
 Pd  Pd1  1  0.26729  0.00000  0.50000  1
 Pd  Pd2  1  0.00000  0.26729  0.50000  1
 Pd  Pd3  1  0.73271  0.73271  0.50000  1
