CIF file written using JARVIS-Tools package.
data_Rb2ZnO2
_symmetry_space_group_name_H-M  'P2_1/c'
_cell_length_a       9.57081
_cell_length_b       6.33868
_cell_length_c       16.0638
_cell_angle_alpha    90
_cell_angle_beta     119.538
_cell_angle_gamma    90

_symmetry_Int_Tables_number  14
_chemical_formula_structural  Rb2ZnO2
_chemical_formula_sum  Rb6Zn8O6
_cell_volume  847.8719469616366
_cell_formula_units_Z  8
loop_
  _symmetry_equiv_pos_site_id
 _symmetry_equiv_pos_as_xyz
 1  'x, y, z'
loop_
 _atom_site_type_symbol
 _atom_site_label
 _atom_site_symmetry_multiplicity
 _atom_site_fract_x
 _atom_site_fract_y
 _atom_site_fract_z
 _atom_site_fract_occupancy
 O  O1  1  0.63688  0.63414  0.57331  1
 O  O2  1  0.63688  0.86586  0.07331  1
 O  O3  1  0.74492  0.22102  0.47057  1
 O  O4  1  0.85800  0.18903  0.79784  1
 O  O5  1  0.85800  0.31097  0.29784  1
 O  O6  1  0.25508  0.72102  0.02943  1
 O  O7  1  0.38491  0.39350  0.64249  1
 O  O8  1  0.61509  0.60650  0.35751  1
 O  O9  1  0.36312  0.13414  0.92669  1
 O  O10  1  0.74492  0.27898  0.97057  1
 O  O11  1  0.14200  0.81097  0.20216  1
 O  O12  1  0.61509  0.89350  0.85751  1
 O  O13  1  0.14200  0.68903  0.70216  1
 O  O14  1  0.38491  0.10650  0.14249  1
 O  O15  1  0.25508  0.77898  0.52943  1
 O  O16  1  0.36312  0.36586  0.42669  1
 Rb  Rb1  1  0.68382  0.58324  0.76204  1
 Rb  Rb2  1  0.31618  0.41676  0.23796  1
 Rb  Rb3  1  0.68382  0.91676  0.26204  1
 Rb  Rb4  1  0.13949  0.17722  0.47173  1
 Rb  Rb5  1  0.56486  0.43737  0.11977  1
 Rb  Rb6  1  0.86051  0.82278  0.52827  1
 Rb  Rb7  1  0.92286  0.13849  0.16394  1
 Rb  Rb8  1  0.31618  0.08324  0.73796  1
 Rb  Rb9  1  0.92286  0.36151  0.66394  1
 Rb  Rb10  1  0.07714  0.63849  0.33606  1
 Rb  Rb11  1  0.07714  0.86151  0.83606  1
 Rb  Rb12  1  0.13949  0.32278  0.97173  1
 Rb  Rb13  1  0.86051  0.67722  0.02827  1
 Rb  Rb14  1  0.43514  0.56263  0.88023  1
 Rb  Rb15  1  0.43514  0.93737  0.38023  1
 Rb  Rb16  1  0.56486  0.06263  0.61977  1
 Zn  Zn1  1  0.75809  0.37764  0.36839  1
 Zn  Zn2  1  0.41232  0.55317  0.54019  1
 Zn  Zn3  1  0.24191  0.87764  0.13161  1
 Zn  Zn4  1  0.58768  0.44683  0.45981  1
 Zn  Zn5  1  0.75809  0.12236  0.86839  1
 Zn  Zn6  1  0.58768  0.05317  0.95981  1
 Zn  Zn7  1  0.41232  0.94683  0.04019  1
 Zn  Zn8  1  0.24191  0.62236  0.63161  1
