CIF file written using JARVIS-Tools package.
data_MgSb4O8
_symmetry_space_group_name_H-M  'P1'
_cell_length_a       3.25359
_cell_length_b       6.64659
_cell_length_c       9.81633
_cell_angle_alpha    65.6769
_cell_angle_beta     90.1437
_cell_angle_gamma    82.9803

_symmetry_Int_Tables_number  1
_chemical_formula_structural  MgSb4O8
_chemical_formula_sum  MgSb4O8
_cell_volume  191.6594242644397
_cell_formula_units_Z  1
loop_
  _symmetry_equiv_pos_site_id
 _symmetry_equiv_pos_as_xyz
 1  'x, y, z'
loop_
 _atom_site_type_symbol
 _atom_site_label
 _atom_site_symmetry_multiplicity
 _atom_site_fract_x
 _atom_site_fract_y
 _atom_site_fract_z
 _atom_site_fract_occupancy
 Mg  Mg1  1  0.58539  0.85525  0.80152  1
 O  O1  1  0.20597  0.32479  0.27928  1
 O  O2  1  0.60456  0.71880  0.19752  1
 O  O3  1  0.50263  0.24398  0.75014  1
 O  O4  1  0.88431  0.62311  0.71129  1
 O  O5  1  0.80039  -0.04940  0.39874  1
 O  O6  1  0.06895  0.89640  0.91192  1
 O  O7  1  0.29749  0.98942  0.59339  1
 O  O8  1  0.64014  0.53795  0.00740  1
 Sb  Sb1  1  0.34530  0.73351  0.52238  1
 Sb  Sb2  1  0.98875  0.28041  0.86735  1
 Sb  Sb3  1  0.12629  0.62830  0.10725  1
 Sb  Sb4  1  0.72742  0.22685  0.44302  1
