CIF file written using JARVIS-Tools package.
data_LiMnF4
_symmetry_space_group_name_H-M  'Pbcn'
_cell_length_a       4.50451
_cell_length_b       5.30679
_cell_length_c       11.3038
_cell_angle_alpha    90
_cell_angle_beta     90
_cell_angle_gamma    90

_symmetry_Int_Tables_number  60
_chemical_formula_structural  LiMnF4
_chemical_formula_sum  Li4Mn4F6
_cell_volume  270.2116500578652
_cell_formula_units_Z  4
loop_
  _symmetry_equiv_pos_site_id
 _symmetry_equiv_pos_as_xyz
 1  'x, y, z'
loop_
 _atom_site_type_symbol
 _atom_site_label
 _atom_site_symmetry_multiplicity
 _atom_site_fract_x
 _atom_site_fract_y
 _atom_site_fract_z
 _atom_site_fract_occupancy
 F  F1  1  0.27402  0.10075  0.68916  1
 F  F2  1  0.76326  0.89541  0.04750  1
 F  F3  1  0.76326  0.39541  0.95250  1
 F  F4  1  0.77402  0.39925  0.18916  1
 F  F5  1  0.23674  0.60459  0.04750  1
 F  F6  1  0.72598  0.89925  0.31084  1
 F  F7  1  0.72598  0.39925  0.68916  1
 F  F8  1  0.77402  0.89925  0.81084  1
 F  F9  1  0.73674  0.39541  0.45250  1
 F  F10  1  0.26326  0.10459  0.45250  1
 F  F11  1  0.26326  0.60459  0.54750  1
 F  F12  1  0.23674  0.10459  0.95250  1
 F  F13  1  0.27402  0.60075  0.31084  1
 F  F14  1  0.22598  0.10075  0.18916  1
 F  F15  1  0.22598  0.60075  0.81084  1
 F  F16  1  0.73674  0.89541  0.54750  1
 Li  Li1  1  0.50000  0.25000  0.83022  1
 Li  Li2  1  0.50000  0.75000  0.16978  1
 Li  Li3  1  0.00000  0.75000  0.66978  1
 Li  Li4  1  0.00000  0.25000  0.33022  1
 Mn  Mn1  1  0.50000  0.25000  0.57405  1
 Mn  Mn2  1  0.50000  0.75000  0.42595  1
 Mn  Mn3  1  0.00000  0.75000  0.92595  1
 Mn  Mn4  1  0.00000  0.25000  0.07405  1
