CIF file written using JARVIS-Tools package.
data_CaTi2O4
_symmetry_space_group_name_H-M  'Cmcm'
_cell_length_a       3.06788
_cell_length_b       5.13252
_cell_length_c       10.1173
_cell_angle_alpha    90
_cell_angle_beta     90
_cell_angle_gamma    107.389

_symmetry_Int_Tables_number  63
_chemical_formula_structural  CaTi2O4
_chemical_formula_sum  Ca2Ti4O8
_cell_volume  152.0261024580983
_cell_formula_units_Z  2
loop_
  _symmetry_equiv_pos_site_id
 _symmetry_equiv_pos_as_xyz
 1  'x, y, z'
loop_
 _atom_site_type_symbol
 _atom_site_label
 _atom_site_symmetry_multiplicity
 _atom_site_fract_x
 _atom_site_fract_y
 _atom_site_fract_z
 _atom_site_fract_occupancy
 Ca  Ca1  1  0.37970  0.75940  0.75000  1
 Ca  Ca2  1  0.62030  0.24060  0.25000  1
 O  O1  1  0.23251  0.46503  0.39285  1
 O  O2  1  0.76749  0.53497  0.60715  1
 O  O3  1  0.76749  0.53497  0.89285  1
 O  O4  1  0.23251  0.46503  0.10715  1
 O  O5  1  0.93909  0.87818  0.25000  1
 O  O6  1  0.06091  0.12182  0.75000  1
 O  O7  1  0.50000  0.00000  0.00000  1
 O  O8  1  0.50000  0.00000  0.50000  1
 Ti  Ti1  1  0.87562  0.75123  0.06500  1
 Ti  Ti2  1  0.12438  0.24877  0.93500  1
 Ti  Ti3  1  0.87562  0.75123  0.43500  1
 Ti  Ti4  1  0.12438  0.24877  0.56500  1
