CIF file written using JARVIS-Tools package.
data_HfTiO4
_symmetry_space_group_name_H-M  'P1'
_cell_length_a       4.76419
_cell_length_b       5.64397
_cell_length_c       10.1367
_cell_angle_alpha    90.2761
_cell_angle_beta     91.0737
_cell_angle_gamma    90.0864

_symmetry_Int_Tables_number  1
_chemical_formula_structural  HfTiO4
_chemical_formula_sum  Hf4Ti4O6
_cell_volume  272.51552946191725
_cell_formula_units_Z  4
loop_
  _symmetry_equiv_pos_site_id
 _symmetry_equiv_pos_as_xyz
 1  'x, y, z'
loop_
 _atom_site_type_symbol
 _atom_site_label
 _atom_site_symmetry_multiplicity
 _atom_site_fract_x
 _atom_site_fract_y
 _atom_site_fract_z
 _atom_site_fract_occupancy
 Hf  Hf1  1  0.00643  0.32479  0.11975  1
 Hf  Hf2  1  0.50052  0.81997  0.12235  1
 Hf  Hf3  1  0.50532  0.18553  0.38040  1
 Hf  Hf4  1  0.49705  0.81201  0.62707  1
 O  O1  1  0.24730  0.39246  0.95414  1
 O  O2  1  0.21804  0.38954  0.47177  1
 O  O3  1  0.23012  0.60625  0.21980  1
 O  O4  1  0.77759  0.39629  0.28640  1
 O  O5  1  0.25503  0.89009  0.95415  1
 O  O6  1  0.26945  0.11982  0.70965  1
 O  O7  1  0.20115  0.61137  0.71415  1
 O  O8  1  0.26709  0.88221  0.45615  1
 O  O9  1  0.72578  0.88419  0.79712  1
 O  O10  1  0.73689  0.10927  0.55013  1
 O  O11  1  0.28428  0.10635  0.20980  1
 O  O12  1  0.71090  0.11445  0.03244  1
 O  O13  1  0.79090  0.61479  0.03192  1
 O  O14  1  0.77231  0.60087  0.53250  1
 O  O15  1  0.74613  0.88718  0.29415  1
 O  O16  1  0.76025  0.38360  0.78684  1
 Ti  Ti1  1  0.50109  0.18760  0.87091  1
 Ti  Ti2  1  0.99784  0.67184  0.37711  1
 Ti  Ti3  1  0.00103  0.32483  0.62861  1
 Ti  Ti4  1  0.99752  0.68471  0.87268  1
