CIF file written using JARVIS-Tools package.
data_SrLu2O4
_symmetry_space_group_name_H-M  'Pnma'
_cell_length_a       3.32771
_cell_length_b       9.95267
_cell_length_c       11.7112
_cell_angle_alpha    90
_cell_angle_beta     90
_cell_angle_gamma    90

_symmetry_Int_Tables_number  62
_chemical_formula_structural  SrLu2O4
_chemical_formula_sum  Sr4Lu8O6
_cell_volume  387.8719002968833
_cell_formula_units_Z  4
loop_
  _symmetry_equiv_pos_site_id
 _symmetry_equiv_pos_as_xyz
 1  'x, y, z'
loop_
 _atom_site_type_symbol
 _atom_site_label
 _atom_site_symmetry_multiplicity
 _atom_site_fract_x
 _atom_site_fract_y
 _atom_site_fract_z
 _atom_site_fract_occupancy
 Lu  Lu1  1  0.25000  0.42152  0.89128  1
 Lu  Lu2  1  0.25000  0.92637  0.11186  1
 Lu  Lu3  1  0.25000  0.92152  0.60872  1
 Lu  Lu4  1  0.75000  0.57363  0.61186  1
 Lu  Lu5  1  0.75000  0.57848  0.10872  1
 Lu  Lu6  1  0.25000  0.42637  0.38814  1
 Lu  Lu7  1  0.75000  0.07848  0.39128  1
 Lu  Lu8  1  0.75000  0.07363  0.88814  1
 O  O1  1  0.75000  0.37827  0.02013  1
 O  O2  1  0.75000  0.29016  0.33145  1
 O  O3  1  0.25000  0.20984  0.83145  1
 O  O4  1  0.75000  0.87827  0.47987  1
 O  O5  1  0.25000  0.12173  0.52013  1
 O  O6  1  0.25000  0.92503  0.92397  1
 O  O7  1  0.25000  0.01803  0.28328  1
 O  O8  1  0.75000  0.07497  0.07603  1
 O  O9  1  0.75000  0.48197  0.78328  1
 O  O10  1  0.75000  0.98197  0.71672  1
 O  O11  1  0.25000  0.62173  0.97987  1
 O  O12  1  0.25000  0.70984  0.66855  1
 O  O13  1  0.75000  0.79016  0.16855  1
 O  O14  1  0.25000  0.42503  0.57603  1
 O  O15  1  0.25000  0.51803  0.21672  1
 O  O16  1  0.75000  0.57497  0.42397  1
 Sr  Sr1  1  0.25000  0.75364  0.34912  1
 Sr  Sr2  1  0.75000  0.74636  0.84912  1
 Sr  Sr3  1  0.25000  0.25364  0.15088  1
 Sr  Sr4  1  0.75000  0.24636  0.65088  1
