CIF file written using JARVIS-Tools package.
data_Mg3Mn4O7
_symmetry_space_group_name_H-M  'Immm'
_cell_length_a       3.07948
_cell_length_b       4.30699
_cell_length_c       11.1656
_cell_angle_alpha    101.121
_cell_angle_beta     97.9262
_cell_angle_gamma    89.9989

_symmetry_Int_Tables_number  71
_chemical_formula_structural  Mg3Mn4O7
_chemical_formula_sum  Mg3Mn4O7
_cell_volume  143.8701263643797
_cell_formula_units_Z  1
loop_
  _symmetry_equiv_pos_site_id
 _symmetry_equiv_pos_as_xyz
 1  'x, y, z'
loop_
 _atom_site_type_symbol
 _atom_site_label
 _atom_site_symmetry_multiplicity
 _atom_site_fract_x
 _atom_site_fract_y
 _atom_site_fract_z
 _atom_site_fract_occupancy
 Mg  Mg1  1  0.71256  0.71644  0.42922  1
 Mg  Mg2  1  0.57092  0.57475  0.14581  1
 Mg  Mg3  1  0.85410  0.85818  0.71263  1
 Mn  Mn1  1  0.99798  0.00191  0.00011  1
 Mn  Mn2  1  0.14134  0.14516  0.28665  1
 Mn  Mn3  1  0.28375  0.28774  0.57179  1
 Mn  Mn4  1  0.42697  0.43104  0.85833  1
 O  O1  1  0.14281  0.64665  0.28963  1
 O  O2  1  0.28226  0.78626  0.56881  1
 O  O3  1  0.42042  0.92450  0.84526  1
 O  O4  1  0.00457  0.50844  0.01318  1
 O  O5  1  0.71256  0.21645  0.42922  1
 O  O6  1  0.57116  0.07498  0.14628  1
 O  O7  1  0.85385  0.35794  0.71216  1
