CIF file written using JARVIS-Tools package.
data_NaY3SiS7
_symmetry_space_group_name_H-M  'P6_3'
_cell_length_a       9.93399
_cell_length_b       9.93399
_cell_length_c       5.73403
_cell_angle_alpha    90
_cell_angle_beta     90
_cell_angle_gamma    120

_symmetry_Int_Tables_number  173
_chemical_formula_structural  NaY3SiS7
_chemical_formula_sum  Na2Y6Si2S4
_cell_volume  490.0474862874207
_cell_formula_units_Z  2
loop_
  _symmetry_equiv_pos_site_id
 _symmetry_equiv_pos_as_xyz
 1  'x, y, z'
loop_
 _atom_site_type_symbol
 _atom_site_label
 _atom_site_symmetry_multiplicity
 _atom_site_fract_x
 _atom_site_fract_y
 _atom_site_fract_z
 _atom_site_fract_occupancy
 Na  Na1  1  0.00000  0.00000  0.96514  1
 Na  Na2  1  0.00000  0.00000  0.46514  1
 S  S1  1  0.26234  0.16546  0.71252  1
 S  S2  1  0.41528  0.52221  0.48312  1
 S  S3  1  0.09688  0.26234  0.21252  1
 S  S4  1  0.73766  0.83454  0.21252  1
 S  S5  1  0.10693  0.58472  0.48312  1
 S  S6  1  0.83454  0.09688  0.71252  1
 S  S7  1  0.66667  0.33333  0.46163  1
 S  S8  1  0.33333  0.66667  0.96163  1
 S  S9  1  0.52221  0.10693  0.98312  1
 S  S10  1  0.58472  0.47779  0.98312  1
 S  S11  1  0.89307  0.41528  0.98312  1
 S  S12  1  0.47779  0.89307  0.48312  1
 S  S13  1  0.90312  0.73766  0.71252  1
 S  S14  1  0.16546  0.90312  0.21252  1
 Si  Si1  1  0.66667  0.33333  0.83136  1
 Si  Si2  1  0.33333  0.66667  0.33136  1
 Y  Y1  1  0.63782  0.76877  0.74585  1
 Y  Y2  1  0.13095  0.36218  0.74585  1
 Y  Y3  1  0.76877  0.13095  0.24585  1
 Y  Y4  1  0.86905  0.63782  0.24585  1
 Y  Y5  1  0.23123  0.86905  0.74585  1
 Y  Y6  1  0.36218  0.23123  0.24585  1
