CIF file written using JARVIS-Tools package.
data_Rb3BS3
_symmetry_space_group_name_H-M  'P2_1/c'
_cell_length_a       6.37161
_cell_length_b       10.118
_cell_length_c       13.0622
_cell_angle_alpha    103.412
_cell_angle_beta     90
_cell_angle_gamma    90

_symmetry_Int_Tables_number  14
_chemical_formula_structural  Rb3BS3
_chemical_formula_sum  Rb2B4S2
_cell_volume  819.1273416268716
_cell_formula_units_Z  4
loop_
  _symmetry_equiv_pos_site_id
 _symmetry_equiv_pos_as_xyz
 1  'x, y, z'
loop_
 _atom_site_type_symbol
 _atom_site_label
 _atom_site_symmetry_multiplicity
 _atom_site_fract_x
 _atom_site_fract_y
 _atom_site_fract_z
 _atom_site_fract_occupancy
 B  B1  1  0.37958  0.76645  0.87272  1
 B  B2  1  0.62042  0.23355  0.12728  1
 B  B3  1  0.12042  0.76645  0.37272  1
 B  B4  1  0.87958  0.23355  0.62728  1
 Rb  Rb1  1  0.65110  0.74014  0.50780  1
 Rb  Rb2  1  0.15110  0.25986  0.99220  1
 Rb  Rb3  1  0.34890  0.25986  0.49220  1
 Rb  Rb4  1  0.84890  0.74014  0.00780  1
 Rb  Rb5  1  0.06107  0.59985  0.70045  1
 Rb  Rb6  1  0.77831  0.03502  0.35892  1
 Rb  Rb7  1  0.72169  0.03502  0.85892  1
 Rb  Rb8  1  0.22169  0.96498  0.64108  1
 Rb  Rb9  1  0.43893  0.59985  0.20045  1
 Rb  Rb10  1  0.93893  0.40015  0.29955  1
 Rb  Rb11  1  0.56107  0.40015  0.79955  1
 Rb  Rb12  1  0.27831  0.96498  0.14108  1
 S  S1  1  0.34421  0.65893  0.96685  1
 S  S2  1  0.92632  0.71711  0.26581  1
 S  S3  1  0.42632  0.28289  0.23419  1
 S  S4  1  0.07368  0.28289  0.73419  1
 S  S5  1  0.57368  0.71711  0.76581  1
 S  S6  1  0.71439  0.08279  0.61842  1
 S  S7  1  0.78561  0.08279  0.11842  1
 S  S8  1  0.21439  0.91721  0.88158  1
 S  S9  1  0.15579  0.65893  0.46685  1
 S  S10  1  0.65579  0.34107  0.03315  1
 S  S11  1  0.28561  0.91721  0.38158  1
 S  S12  1  0.84421  0.34107  0.53315  1
