CIF file written using JARVIS-Tools package.
data_Ce2Si4OsRu3
_symmetry_space_group_name_H-M  'P-4m2'
_cell_length_a       4.21557
_cell_length_b       4.21557
_cell_length_c       9.7209
_cell_angle_alpha    90
_cell_angle_beta     90
_cell_angle_gamma    90

_symmetry_Int_Tables_number  115
_chemical_formula_structural  Ce2Si4OsRu3
_chemical_formula_sum  Ce2Si4OsRu3
_cell_volume  172.75015070553658
_cell_formula_units_Z  1
loop_
  _symmetry_equiv_pos_site_id
 _symmetry_equiv_pos_as_xyz
 1  'x, y, z'
loop_
 _atom_site_type_symbol
 _atom_site_label
 _atom_site_symmetry_multiplicity
 _atom_site_fract_x
 _atom_site_fract_y
 _atom_site_fract_z
 _atom_site_fract_occupancy
 Ce  Ce1  1  0.50000  0.00000  0.75009  1
 Ce  Ce2  1  0.00000  0.50000  0.24991  1
 Os  Os1  1  0.50000  0.50000  0.00000  1
 Ru  Ru1  1  0.00000  0.00000  0.50000  1
 Ru  Ru2  1  0.00000  0.00000  0.00000  1
 Ru  Ru3  1  0.50000  0.50000  0.50000  1
 Si  Si1  1  0.00000  0.50000  0.88125  1
 Si  Si2  1  0.50000  0.00000  0.38286  1
 Si  Si3  1  0.50000  0.00000  0.11875  1
 Si  Si4  1  0.00000  0.50000  0.61714  1
