CIF file written using JARVIS-Tools package.
data_SnTePbSe
_symmetry_space_group_name_H-M  'R3m'
_cell_length_a       7.72598
_cell_length_b       7.72598
_cell_length_c       7.72598
_cell_angle_alpha    33.5575
_cell_angle_beta     33.5575
_cell_angle_gamma    33.5575

_symmetry_Int_Tables_number  160
_chemical_formula_structural  SnTePbSe
_chemical_formula_sum  SnTePbSe
_cell_volume  125.51620864789007
_cell_formula_units_Z  1
loop_
  _symmetry_equiv_pos_site_id
 _symmetry_equiv_pos_as_xyz
 1  'x, y, z'
loop_
 _atom_site_type_symbol
 _atom_site_label
 _atom_site_symmetry_multiplicity
 _atom_site_fract_x
 _atom_site_fract_y
 _atom_site_fract_z
 _atom_site_fract_occupancy
 Pb  Pb1  1  0.00619  0.00619  0.00619  1
 Se  Se1  1  0.75164  0.75164  0.75164  1
 Sn  Sn1  1  0.49516  0.49516  0.49516  1
 Te  Te1  1  0.24701  0.24701  0.24701  1
