CIF file written using JARVIS-Tools package.
data_ErGeBiO5
_symmetry_space_group_name_H-M  'Pbca'
_cell_length_a       5.35238
_cell_length_b       11.0307
_cell_length_c       15.3571
_cell_angle_alpha    90
_cell_angle_beta     90
_cell_angle_gamma    90

_symmetry_Int_Tables_number  61
_chemical_formula_structural  ErGeBiO5
_chemical_formula_sum  Er8Ge8Bi8O40
_cell_volume  906.6894221921206
_cell_formula_units_Z  8
loop_
  _symmetry_equiv_pos_site_id
 _symmetry_equiv_pos_as_xyz
 1  'x, y, z'
loop_
 _atom_site_type_symbol
 _atom_site_label
 _atom_site_symmetry_multiplicity
 _atom_site_fract_x
 _atom_site_fract_y
 _atom_site_fract_z
 _atom_site_fract_occupancy
 Bi  Bi1  1  0.03733  0.35502  0.26180  1
 Bi  Bi2  1  0.46267  0.85502  0.73820  1
 Bi  Bi3  1  0.53733  0.64498  0.23820  1
 Bi  Bi4  1  0.53733  0.14498  0.26180  1
 Bi  Bi5  1  0.46267  0.35502  0.76180  1
 Bi  Bi6  1  0.96267  0.14498  0.76180  1
 Bi  Bi7  1  0.03733  0.85502  0.23820  1
 Bi  Bi8  1  0.96267  0.64498  0.73820  1
 Er  Er1  1  0.01217  0.85861  0.55410  1
 Er  Er2  1  0.48783  0.85861  0.05410  1
 Er  Er3  1  0.51217  0.14139  0.94590  1
 Er  Er4  1  0.48783  0.35861  0.44590  1
 Er  Er5  1  0.98783  0.14139  0.44590  1
 Er  Er6  1  0.51217  0.64139  0.55410  1
 Er  Er7  1  0.01217  0.35861  0.94590  1
 Er  Er8  1  0.98783  0.64139  0.05410  1
 Ge  Ge1  1  0.50539  0.09761  0.59523  1
 Ge  Ge2  1  0.49461  0.40239  0.09523  1
 Ge  Ge3  1  0.00539  0.40239  0.59523  1
 Ge  Ge4  1  0.50539  0.59761  0.90477  1
 Ge  Ge5  1  0.99461  0.59761  0.40477  1
 Ge  Ge6  1  0.99461  0.09761  0.09523  1
 Ge  Ge7  1  0.00539  0.90239  0.90477  1
 Ge  Ge8  1  0.49461  0.90239  0.40477  1
 O  O1  1  0.80181  0.04068  0.56108  1
 O  O2  1  0.19606  0.97507  0.12614  1
 O  O3  1  0.25303  0.23455  0.84955  1
 O  O4  1  0.69606  0.52493  0.12614  1
 O  O5  1  0.74697  0.76545  0.15045  1
 O  O6  1  0.19819  0.95932  0.43892  1
 O  O7  1  0.93597  0.66907  0.30134  1
 O  O8  1  0.43597  0.83093  0.30134  1
 O  O9  1  0.43597  0.33093  0.19866  1
 O  O10  1  0.74697  0.26545  0.34955  1
 O  O11  1  0.80181  0.54068  0.93892  1
 O  O12  1  0.06403  0.83093  0.80134  1
 O  O13  1  0.24697  0.23455  0.34955  1
 O  O14  1  0.85060  0.30683  0.52058  1
 O  O15  1  0.85060  0.80683  0.97942  1
 O  O16  1  0.80394  0.02493  0.87386  1
 O  O17  1  0.75303  0.76545  0.65045  1
 O  O18  1  0.19819  0.45932  0.06108  1
 O  O19  1  0.93597  0.16907  0.19866  1
 O  O20  1  0.56403  0.66907  0.80134  1
 O  O21  1  0.30394  0.47507  0.87386  1
 O  O22  1  0.69606  0.02493  0.37386  1
 O  O23  1  0.35060  0.19317  0.52058  1
 O  O24  1  0.25303  0.73455  0.65045  1
 O  O25  1  0.06403  0.33093  0.69866  1
 O  O26  1  0.30181  0.95932  0.93892  1
 O  O27  1  0.64940  0.30683  0.02058  1
 O  O28  1  0.14940  0.19317  0.02058  1
 O  O29  1  0.69819  0.04068  0.06108  1
 O  O30  1  0.69819  0.54068  0.43892  1
 O  O31  1  0.30394  0.97507  0.62614  1
 O  O32  1  0.30181  0.45932  0.56108  1
 O  O33  1  0.19606  0.47507  0.37386  1
 O  O34  1  0.56403  0.16907  0.69866  1
 O  O35  1  0.80394  0.52493  0.62614  1
 O  O36  1  0.35060  0.69317  0.97942  1
 O  O37  1  0.14940  0.69317  0.47942  1
 O  O38  1  0.75303  0.26545  0.84955  1
 O  O39  1  0.64940  0.80683  0.47942  1
 O  O40  1  0.24697  0.73455  0.15045  1
