CIF file written using JARVIS-Tools package.
data_CrP2O7
_symmetry_space_group_name_H-M  'C2'
_cell_length_a       5.04596
_cell_length_b       5.04596
_cell_length_c       4.48436
_cell_angle_alpha    81.7272
_cell_angle_beta     98.2728
_cell_angle_gamma    80.3887

_symmetry_Int_Tables_number  5
_chemical_formula_structural  CrP2O7
_chemical_formula_sum  CrP2O7
_cell_volume  109.74326276129527
_cell_formula_units_Z  1
loop_
  _symmetry_equiv_pos_site_id
 _symmetry_equiv_pos_as_xyz
 1  'x, y, z'
loop_
 _atom_site_type_symbol
 _atom_site_label
 _atom_site_symmetry_multiplicity
 _atom_site_fract_x
 _atom_site_fract_y
 _atom_site_fract_z
 _atom_site_fract_occupancy
 Cr  Cr1  1  0.11102  0.11102  -0.00000  1
 O  O1  1  0.55160  0.55160  0.50000  1
 O  O2  1  0.14920  0.42816  0.73193  1
 O  O3  1  0.07395  0.81158  0.29129  1
 O  O4  1  0.33221  0.85847  0.81443  1
 O  O5  1  0.81158  0.07395  0.70872  1
 O  O6  1  0.85847  0.33221  0.18557  1
 O  O7  1  0.42816  0.14920  0.26807  1
 P  P1  1  0.26328  0.66703  0.59082  1
 P  P2  1  0.66703  0.26329  0.40918  1
