CIF file written using JARVIS-Tools package.
data_CaSeO3
_symmetry_space_group_name_H-M  'P2_1/c'
_cell_length_a       6.40799
_cell_length_b       6.82065
_cell_length_c       8.18866
_cell_angle_alpha    90
_cell_angle_beta     126.739
_cell_angle_gamma    90

_symmetry_Int_Tables_number  14
_chemical_formula_structural  CaSeO3
_chemical_formula_sum  Ca4Se4O2
_cell_volume  286.8081739075502
_cell_formula_units_Z  4
loop_
  _symmetry_equiv_pos_site_id
 _symmetry_equiv_pos_as_xyz
 1  'x, y, z'
loop_
 _atom_site_type_symbol
 _atom_site_label
 _atom_site_symmetry_multiplicity
 _atom_site_fract_x
 _atom_site_fract_y
 _atom_site_fract_z
 _atom_site_fract_occupancy
 Ca  Ca1  1  0.14836  0.12650  0.87522  1
 Ca  Ca2  1  0.14836  0.37350  0.37522  1
 Ca  Ca3  1  0.85164  0.62650  0.62478  1
 Ca  Ca4  1  0.85164  0.87350  0.12478  1
 O  O1  1  0.40173  0.58056  0.31377  1
 O  O2  1  0.08182  0.81222  0.97846  1
 O  O3  1  0.91818  0.31222  0.52154  1
 O  O4  1  0.40173  0.91944  0.81377  1
 O  O5  1  0.59827  0.08056  0.18623  1
 O  O6  1  0.59827  0.41944  0.68623  1
 O  O7  1  0.21360  0.02995  0.42686  1
 O  O8  1  0.78640  0.52995  0.07314  1
 O  O9  1  0.78640  0.97005  0.57314  1
 O  O10  1  0.08182  0.68778  0.47846  1
 O  O11  1  0.91818  0.18778  0.02154  1
 O  O12  1  0.21360  0.47005  0.92686  1
 Se  Se1  1  0.64262  0.33746  0.90448  1
 Se  Se2  1  0.64262  0.16254  0.40448  1
 Se  Se3  1  0.35738  0.83746  0.59552  1
 Se  Se4  1  0.35738  0.66254  0.09552  1
