CIF file written using JARVIS-Tools package.
data_InPbCl3
_symmetry_space_group_name_H-M  'Cmcm'
_cell_length_a       4.26589
_cell_length_b       10.7371
_cell_length_c       7.01246
_cell_angle_alpha    90
_cell_angle_beta     107.711
_cell_angle_gamma    90

_symmetry_Int_Tables_number  63
_chemical_formula_structural  InPbCl3
_chemical_formula_sum  In2Pb2Cl6
_cell_volume  305.97164987200694
_cell_formula_units_Z  2
loop_
  _symmetry_equiv_pos_site_id
 _symmetry_equiv_pos_as_xyz
 1  'x, y, z'
loop_
 _atom_site_type_symbol
 _atom_site_label
 _atom_site_symmetry_multiplicity
 _atom_site_fract_x
 _atom_site_fract_y
 _atom_site_fract_z
 _atom_site_fract_occupancy
 Cl  Cl1  1  0.64213  0.94495  0.28423  1
 Cl  Cl2  1  0.35787  0.44495  0.71577  1
 Cl  Cl3  1  0.64213  0.55505  0.28423  1
 Cl  Cl4  1  0.35787  0.05505  0.71577  1
 Cl  Cl5  1  0.07795  0.25000  0.15619  1
 Cl  Cl6  1  0.92205  0.75000  0.84381  1
 In  In1  1  0.74932  0.25000  0.49902  1
 In  In2  1  0.25068  0.75000  0.50098  1
 Pb  Pb1  1  0.00000  0.00000  0.00000  1
 Pb  Pb2  1  0.00000  0.50000  0.00000  1
