CIF file written using JARVIS-Tools package.
data_AlCuF5
_symmetry_space_group_name_H-M  'Immm'
_cell_length_a       5.12705
_cell_length_b       5.12706
_cell_length_c       5.12706
_cell_angle_alpha    139.215
_cell_angle_beta     105.815
_cell_angle_gamma    88.2981

_symmetry_Int_Tables_number  71
_chemical_formula_structural  AlCuF5
_chemical_formula_sum  AlCuF5
_cell_volume  81.28964861518651
_cell_formula_units_Z  1
loop_
  _symmetry_equiv_pos_site_id
 _symmetry_equiv_pos_as_xyz
 1  'x, y, z'
loop_
 _atom_site_type_symbol
 _atom_site_label
 _atom_site_symmetry_multiplicity
 _atom_site_fract_x
 _atom_site_fract_y
 _atom_site_fract_z
 _atom_site_fract_occupancy
 Al  Al1  1  0.50000  0.50000  0.00000  1
 Cu  Cu1  1  0.00000  0.00000  0.00000  1
 F  F1  1  0.79496  0.50000  0.29496  1
 F  F2  1  0.20504  0.50000  0.70504  1
 F  F3  1  0.25369  0.25369  -0.00000  1
 F  F4  1  0.74631  0.74631  0.00000  1
 F  F5  1  0.50000  -0.00000  0.50000  1
