CIF file written using JARVIS-Tools package.
data_Er2Zr2O7
_symmetry_space_group_name_H-M  'Pmma'
_cell_length_a       3.57747
_cell_length_b       7.45628
_cell_length_c       10.5254
_cell_angle_alpha    90
_cell_angle_beta     90
_cell_angle_gamma    90

_symmetry_Int_Tables_number  51
_chemical_formula_structural  Er2Zr2O7
_chemical_formula_sum  Er4Zr4O4
_cell_volume  280.76074262418007
_cell_formula_units_Z  2
loop_
  _symmetry_equiv_pos_site_id
 _symmetry_equiv_pos_as_xyz
 1  'x, y, z'
loop_
 _atom_site_type_symbol
 _atom_site_label
 _atom_site_symmetry_multiplicity
 _atom_site_fract_x
 _atom_site_fract_y
 _atom_site_fract_z
 _atom_site_fract_occupancy
 Er  Er1  1  0.50000  0.50000  0.50000  1
 Er  Er2  1  0.00000  0.25000  0.22571  1
 Er  Er3  1  0.50000  0.00000  0.50000  1
 Er  Er4  1  0.00000  0.75000  0.77429  1
 O  O1  1  0.50000  0.25000  0.61805  1
 O  O2  1  0.00000  0.45793  0.37040  1
 O  O3  1  0.50000  0.75000  0.38195  1
 O  O4  1  0.50000  0.75000  0.13306  1
 O  O5  1  0.00000  0.48185  0.88057  1
 O  O6  1  0.50000  0.25000  0.11196  1
 O  O7  1  0.00000  0.51815  0.11943  1
 O  O8  1  0.50000  0.25000  0.86694  1
 O  O9  1  0.00000  0.54207  0.62960  1
 O  O10  1  0.00000  0.01815  0.88057  1
 O  O11  1  0.00000  0.95793  0.62960  1
 O  O12  1  0.00000  0.04207  0.37040  1
 O  O13  1  0.50000  0.75000  0.88804  1
 O  O14  1  0.00000  0.98185  0.11943  1
 Zr  Zr1  1  0.50000  0.00000  0.00000  1
 Zr  Zr2  1  0.50000  0.50000  0.00000  1
 Zr  Zr3  1  0.00000  0.75000  0.24654  1
 Zr  Zr4  1  0.00000  0.25000  0.75346  1
