CIF file written using JARVIS-Tools package.
data_CaNb2O4
_symmetry_space_group_name_H-M  'Pbcm'
_cell_length_a       5.11413
_cell_length_b       5.90789
_cell_length_c       11.9583
_cell_angle_alpha    90
_cell_angle_beta     90
_cell_angle_gamma    90

_symmetry_Int_Tables_number  57
_chemical_formula_structural  CaNb2O4
_chemical_formula_sum  Ca4Nb8O6
_cell_volume  361.3051471861256
_cell_formula_units_Z  4
loop_
  _symmetry_equiv_pos_site_id
 _symmetry_equiv_pos_as_xyz
 1  'x, y, z'
loop_
 _atom_site_type_symbol
 _atom_site_label
 _atom_site_symmetry_multiplicity
 _atom_site_fract_x
 _atom_site_fract_y
 _atom_site_fract_z
 _atom_site_fract_occupancy
 Ca  Ca1  1  0.30946  0.25000  0.99620  1
 Ca  Ca2  1  0.30946  0.75000  0.50380  1
 Ca  Ca3  1  0.69054  0.75000  0.00380  1
 Ca  Ca4  1  0.69054  0.25000  0.49620  1
 Nb  Nb1  1  0.65921  0.75000  0.74612  1
 Nb  Nb2  1  0.34079  0.75000  0.24612  1
 Nb  Nb3  1  0.65921  0.25000  0.75388  1
 Nb  Nb4  1  0.34079  0.25000  0.25388  1
 Nb  Nb5  1  0.84418  0.50000  0.25000  1
 Nb  Nb6  1  0.15582  0.50000  0.75000  1
 Nb  Nb7  1  0.84418  0.00000  0.25000  1
 Nb  Nb8  1  0.15582  0.00000  0.75000  1
 O  O1  1  0.49221  0.49536  0.63682  1
 O  O2  1  0.50779  0.49536  0.13682  1
 O  O3  1  0.98585  0.25000  0.64238  1
 O  O4  1  0.49221  0.99536  0.86318  1
 O  O5  1  0.49221  0.00464  0.63682  1
 O  O6  1  0.49221  0.50464  0.86318  1
 O  O7  1  0.50779  0.50464  0.36318  1
 O  O8  1  0.01415  0.25000  0.14238  1
 O  O9  1  0.00640  0.25000  0.36119  1
 O  O10  1  0.99360  0.25000  0.86119  1
 O  O11  1  0.99360  0.75000  0.63881  1
 O  O12  1  0.01415  0.75000  0.35762  1
 O  O13  1  0.50779  0.00464  0.13682  1
 O  O14  1  0.00640  0.75000  0.13881  1
 O  O15  1  0.50779  0.99536  0.36318  1
 O  O16  1  0.98585  0.75000  0.85762  1
