CIF file written using JARVIS-Tools package.
data_Na6PbO5
_symmetry_space_group_name_H-M  'I4mm'
_cell_length_a       5.57992
_cell_length_b       6.1657
_cell_length_c       6.16569
_cell_angle_alpha    78.1849
_cell_angle_beta     63.0961
_cell_angle_gamma    63.096

_symmetry_Int_Tables_number  107
_chemical_formula_structural  Na6PbO5
_chemical_formula_sum  Na6PbO5
_cell_volume  168.6917800034711
_cell_formula_units_Z  1
loop_
  _symmetry_equiv_pos_site_id
 _symmetry_equiv_pos_as_xyz
 1  'x, y, z'
loop_
 _atom_site_type_symbol
 _atom_site_label
 _atom_site_symmetry_multiplicity
 _atom_site_fract_x
 _atom_site_fract_y
 _atom_site_fract_z
 _atom_site_fract_occupancy
 Na  Na1  1  0.79534  0.60286  0.00000  1
 Na  Na2  1  0.39820  0.00000  0.39714  1
 Na  Na3  1  0.79534  0.00000  0.60286  1
 Na  Na4  1  0.19369  0.50000  0.50000  1
 Na  Na5  1  0.39820  0.39714  -0.00000  1
 Na  Na6  1  0.69369  0.50000  0.50000  1
 O  O1  1  0.20753  0.72616  0.72616  1
 O  O2  1  0.42242  -0.00000  0.00000  1
 O  O3  1  -0.06630  0.27384  0.72616  1
 O  O4  1  0.65986  0.27384  0.27384  1
 O  O5  1  -0.06630  0.72616  0.27384  1
 Pb  Pb1  1  0.03834  -0.00000  0.00000  1
