CIF file written using JARVIS-Tools package.
data_BiF5
_symmetry_space_group_name_H-M  'Cmcm'
_cell_length_a       3.82265
_cell_length_b       5.82484
_cell_length_c       8.81935
_cell_angle_alpha    90
_cell_angle_beta     90
_cell_angle_gamma    109.156

_symmetry_Int_Tables_number  63
_chemical_formula_structural  BiF5
_chemical_formula_sum  Bi2F0
_cell_volume  185.50117644663638
_cell_formula_units_Z  2
loop_
  _symmetry_equiv_pos_site_id
 _symmetry_equiv_pos_as_xyz
 1  'x, y, z'
loop_
 _atom_site_type_symbol
 _atom_site_label
 _atom_site_symmetry_multiplicity
 _atom_site_fract_x
 _atom_site_fract_y
 _atom_site_fract_z
 _atom_site_fract_occupancy
 Bi  Bi1  1  0.50000  0.00000  0.50000  1
 Bi  Bi2  1  0.50000  0.00000  0.00000  1
 F  F1  1  0.46225  0.92449  0.25000  1
 F  F2  1  0.53775  0.07551  0.75000  1
 F  F3  1  0.08400  0.16800  0.58385  1
 F  F4  1  0.91600  0.83200  0.41615  1
 F  F5  1  0.33128  0.66256  0.90855  1
 F  F6  1  0.66872  0.33744  0.09145  1
 F  F7  1  0.66872  0.33744  0.40855  1
 F  F8  1  0.33128  0.66256  0.59145  1
 F  F9  1  0.08400  0.16800  0.91615  1
 F  F10  1  0.91600  0.83200  0.08385  1
