CIF file written using JARVIS-Tools package.
data_Ba3Si6N4O9
_symmetry_space_group_name_H-M  'P3'
_cell_length_a       7.30848
_cell_length_b       7.30848
_cell_length_c       6.83852
_cell_angle_alpha    90
_cell_angle_beta     90
_cell_angle_gamma    120

_symmetry_Int_Tables_number  143
_chemical_formula_structural  Ba3Si6N4O9
_chemical_formula_sum  Ba3Si6N4O9
_cell_volume  316.33509018472483
_cell_formula_units_Z  1
loop_
  _symmetry_equiv_pos_site_id
 _symmetry_equiv_pos_as_xyz
 1  'x, y, z'
loop_
 _atom_site_type_symbol
 _atom_site_label
 _atom_site_symmetry_multiplicity
 _atom_site_fract_x
 _atom_site_fract_y
 _atom_site_fract_z
 _atom_site_fract_occupancy
 Ba  Ba1  1  0.33333  0.66667  0.69099  1
 Ba  Ba2  1  0.00000  0.00000  0.55712  1
 Ba  Ba3  1  0.66667  0.33333  0.74831  1
 N  N1  1  0.00000  0.00000  0.09467  1
 N  N2  1  0.42481  0.29366  0.19289  1
 N  N3  1  0.86885  0.57519  0.19289  1
 N  N4  1  0.70634  0.13115  0.19289  1
 O  O1  1  0.62299  0.60916  0.48359  1
 O  O2  1  0.11872  0.41143  0.10267  1
 O  O3  1  0.29271  0.88128  0.10267  1
 O  O4  1  0.28007  0.28750  0.81585  1
 O  O5  1  0.71250  0.99257  0.81585  1
 O  O6  1  0.39084  0.01383  0.48359  1
 O  O7  1  0.00743  0.71993  0.81585  1
 O  O8  1  0.98617  0.37701  0.48359  1
 O  O9  1  0.58857  0.70729  0.10267  1
 Si  Si1  1  0.45111  0.07301  0.25666  1
 Si  Si2  1  0.62190  0.54889  0.25666  1
 Si  Si3  1  0.74686  0.96039  0.04394  1
 Si  Si4  1  0.21353  0.25314  0.04394  1
 Si  Si5  1  0.92699  0.37810  0.25666  1
 Si  Si6  1  0.03961  0.78647  0.04394  1
