CIF file written using JARVIS-Tools package.
data_Mg3Al18Cr2
_symmetry_space_group_name_H-M  'Fd-3m'
_cell_length_a       10.2801
_cell_length_b       10.2801
_cell_length_c       10.2801
_cell_angle_alpha    60
_cell_angle_beta     60
_cell_angle_gamma    60

_symmetry_Int_Tables_number  227
_chemical_formula_structural  Mg3Al18Cr2
_chemical_formula_sum  Mg6Al36Cr4
_cell_volume  768.2098296604518
_cell_formula_units_Z  2
loop_
  _symmetry_equiv_pos_site_id
 _symmetry_equiv_pos_as_xyz
 1  'x, y, z'
loop_
 _atom_site_type_symbol
 _atom_site_label
 _atom_site_symmetry_multiplicity
 _atom_site_fract_x
 _atom_site_fract_y
 _atom_site_fract_z
 _atom_site_fract_occupancy
 Al  Al1  1  0.44186  0.70765  0.17525  1
 Al  Al2  1  0.01495  0.73505  0.01495  1
 Al  Al3  1  0.70765  0.17525  0.17525  1
 Al  Al4  1  0.70765  0.17525  0.44186  1
 Al  Al5  1  0.17525  0.44186  0.70765  1
 Al  Al6  1  0.17525  0.17525  0.70765  1
 Al  Al7  1  0.01495  0.01495  0.73505  1
 Al  Al8  1  0.73505  0.73505  0.01495  1
 Al  Al9  1  0.73505  0.01495  0.73505  1
 Al  Al10  1  0.26495  0.98505  0.98505  1
 Al  Al11  1  0.01495  0.73505  0.73505  1
 Al  Al12  1  0.17525  0.44186  0.17525  1
 Al  Al13  1  0.82475  0.29235  0.55814  1
 Al  Al14  1  0.55814  0.82475  0.82475  1
 Al  Al15  1  0.82475  0.55814  0.82475  1
 Al  Al16  1  0.29235  0.82475  0.55814  1
 Al  Al17  1  0.26495  0.98505  0.26495  1
 Al  Al18  1  0.98505  0.26495  0.26495  1
 Al  Al19  1  0.26495  0.26495  0.98505  1
 Al  Al20  1  0.98505  0.98505  0.26495  1
 Al  Al21  1  0.17525  0.70765  0.17525  1
 Al  Al22  1  0.44186  0.17525  0.70765  1
 Al  Al23  1  0.44186  0.17525  0.17525  1
 Al  Al24  1  0.98505  0.26495  0.98505  1
 Al  Al25  1  0.55814  0.82475  0.29235  1
 Al  Al26  1  0.29235  0.55814  0.82475  1
 Al  Al27  1  0.82475  0.82475  0.55814  1
 Al  Al28  1  0.82475  0.55814  0.29235  1
 Al  Al29  1  0.29235  0.82475  0.82475  1
 Al  Al30  1  0.82475  0.29235  0.82475  1
 Al  Al31  1  0.70765  0.44186  0.17525  1
 Al  Al32  1  0.73505  0.01495  0.01495  1
 Al  Al33  1  0.17525  0.17525  0.44186  1
 Al  Al34  1  0.17525  0.70765  0.44186  1
 Al  Al35  1  0.82475  0.82475  0.29235  1
 Al  Al36  1  0.55814  0.29235  0.82475  1
 Cr  Cr1  1  0.50000  0.00000  0.00000  1
 Cr  Cr2  1  0.00000  0.00000  0.50000  1
 Cr  Cr3  1  0.00000  0.00000  0.00000  1
 Cr  Cr4  1  0.00000  0.50000  0.00000  1
 Mg  Mg1  1  0.37500  0.37500  0.37500  1
 Mg  Mg2  1  0.62500  0.62500  0.62500  1
 Mg  Mg3  1  0.50000  0.50000  0.50000  1
 Mg  Mg4  1  0.50000  0.50000  0.00000  1
 Mg  Mg5  1  0.00000  0.50000  0.50000  1
 Mg  Mg6  1  0.50000  0.00000  0.50000  1
