CIF file written using JARVIS-Tools package.
data_Ho3CuSiSe7
_symmetry_space_group_name_H-M  'P6_3'
_cell_length_a       10.2573
_cell_length_b       10.2573
_cell_length_c       6.01099
_cell_angle_alpha    90
_cell_angle_beta     90
_cell_angle_gamma    120

_symmetry_Int_Tables_number  173
_chemical_formula_structural  Ho3CuSiSe7
_chemical_formula_sum  Ho6Cu2Si2Se4
_cell_volume  547.7020035519942
_cell_formula_units_Z  2
loop_
  _symmetry_equiv_pos_site_id
 _symmetry_equiv_pos_as_xyz
 1  'x, y, z'
loop_
 _atom_site_type_symbol
 _atom_site_label
 _atom_site_symmetry_multiplicity
 _atom_site_fract_x
 _atom_site_fract_y
 _atom_site_fract_z
 _atom_site_fract_occupancy
 Cu  Cu1  1  0.00000  0.00000  0.82349  1
 Cu  Cu2  1  0.00000  0.00000  0.32349  1
 Ho  Ho1  1  0.77878  0.64326  0.76962  1
 Ho  Ho2  1  0.64326  0.86448  0.26962  1
 Ho  Ho3  1  0.13552  0.77878  0.26962  1
 Ho  Ho4  1  0.86448  0.22122  0.76962  1
 Ho  Ho5  1  0.35674  0.13552  0.76962  1
 Ho  Ho6  1  0.22122  0.35674  0.26962  1
 Se  Se1  1  0.42371  0.90206  0.52506  1
 Se  Se2  1  0.16118  0.26404  0.80457  1
 Se  Se3  1  0.09794  0.52165  0.52506  1
 Se  Se4  1  0.89714  0.16118  0.30457  1
 Se  Se5  1  0.66667  0.33333  0.55963  1
 Se  Se6  1  0.47835  0.57629  0.52506  1
 Se  Se7  1  0.83882  0.73596  0.30457  1
 Se  Se8  1  0.26404  0.10286  0.30457  1
 Se  Se9  1  0.10286  0.83882  0.80457  1
 Se  Se10  1  0.52165  0.42371  0.02506  1
 Se  Se11  1  0.90206  0.47835  0.02506  1
 Se  Se12  1  0.33333  0.66667  0.05963  1
 Se  Se13  1  0.57629  0.09794  0.02506  1
 Se  Se14  1  0.73596  0.89714  0.80457  1
 Si  Si1  1  0.33333  0.66667  0.68132  1
 Si  Si2  1  0.66667  0.33333  0.18132  1
