CIF file written using JARVIS-Tools package.
data_SiBi2O5
_symmetry_space_group_name_H-M  'Cmc2_1'
_cell_length_a       5.3525
_cell_length_b       5.53703
_cell_length_c       8.12565
_cell_angle_alpha    109.92
_cell_angle_beta     90
_cell_angle_gamma    90

_symmetry_Int_Tables_number  36
_chemical_formula_structural  SiBi2O5
_chemical_formula_sum  Si2Bi4O0
_cell_volume  226.41089789093553
_cell_formula_units_Z  2
loop_
  _symmetry_equiv_pos_site_id
 _symmetry_equiv_pos_as_xyz
 1  'x, y, z'
loop_
 _atom_site_type_symbol
 _atom_site_label
 _atom_site_symmetry_multiplicity
 _atom_site_fract_x
 _atom_site_fract_y
 _atom_site_fract_z
 _atom_site_fract_occupancy
 Bi  Bi1  1  0.24796  0.61316  0.66977  1
 Bi  Bi2  1  0.74796  0.38684  0.33023  1
 Bi  Bi3  1  0.74796  0.05661  0.66977  1
 Bi  Bi4  1  0.24796  0.94339  0.33023  1
 O  O1  1  0.48191  0.25831  0.50337  1
 O  O2  1  0.98191  0.74169  0.49663  1
 O  O3  1  0.98191  0.24506  0.50337  1
 O  O4  1  0.48191  0.75494  0.49663  1
 O  O5  1  0.67900  0.73246  0.81636  1
 O  O6  1  0.17900  0.26754  0.18364  1
 O  O7  1  0.47943  0.46631  0.00000  1
 O  O8  1  0.97943  0.53369  -0.00000  1
 O  O9  1  0.67900  0.91610  0.18364  1
 O  O10  1  0.17900  0.08390  0.81636  1
 Si  Si1  1  0.70482  0.67887  0.00000  1
 Si  Si2  1  0.20482  0.32113  -0.00000  1
