CIF file written using JARVIS-Tools package.
data_LiVP2O8
_symmetry_space_group_name_H-M  'Pmc2_1'
_cell_length_a       5.69039
_cell_length_b       4.81916
_cell_length_c       9.56141
_cell_angle_alpha    90
_cell_angle_beta     90.0001
_cell_angle_gamma    90

_symmetry_Int_Tables_number  26
_chemical_formula_structural  LiVP2O8
_chemical_formula_sum  Li2V2P4O6
_cell_volume  262.20177153933633
_cell_formula_units_Z  2
loop_
  _symmetry_equiv_pos_site_id
 _symmetry_equiv_pos_as_xyz
 1  'x, y, z'
loop_
 _atom_site_type_symbol
 _atom_site_label
 _atom_site_symmetry_multiplicity
 _atom_site_fract_x
 _atom_site_fract_y
 _atom_site_fract_z
 _atom_site_fract_occupancy
 Li  Li1  1  0.74516  0.87013  0.29044  1
 Li  Li2  1  0.74516  0.12987  0.79044  1
 O  O1  1  0.44961  0.08432  0.34376  1
 O  O2  1  0.04074  0.91570  0.84376  1
 O  O3  1  0.24518  0.07244  0.07413  1
 O  O4  1  0.97254  0.47406  0.15721  1
 O  O5  1  0.24518  0.61388  0.36594  1
 O  O6  1  0.24518  0.38612  0.86594  1
 O  O7  1  0.24518  0.92756  0.57413  1
 O  O8  1  0.44961  0.91568  0.84376  1
 O  O9  1  0.51782  0.47406  0.15721  1
 O  O10  1  0.51782  0.52594  0.65721  1
 O  O11  1  0.97254  0.52594  0.65721  1
 O  O12  1  0.74518  0.97174  0.61427  1
 O  O13  1  0.74518  0.58644  0.43131  1
 O  O14  1  0.74518  0.41356  0.93131  1
 O  O15  1  0.04074  0.08430  0.34376  1
 O  O16  1  0.74518  0.02826  0.11427  1
 P  P1  1  0.74517  0.66870  0.58211  1
 P  P2  1  0.74517  0.33130  0.08211  1
 P  P3  1  0.24518  0.07842  0.91531  1
 P  P4  1  0.24518  0.92158  0.41531  1
 V  V1  1  0.24518  0.66020  0.73337  1
 V  V2  1  0.24518  0.33980  0.23337  1
