CIF file written using JARVIS-Tools package.
data_NaP
_symmetry_space_group_name_H-M  'P2_12_12_1'
_cell_length_a       5.64539
_cell_length_b       6.03222
_cell_length_c       10.0826
_cell_angle_alpha    90
_cell_angle_beta     90
_cell_angle_gamma    90

_symmetry_Int_Tables_number  19
_chemical_formula_structural  NaP
_chemical_formula_sum  Na8P8
_cell_volume  343.35543721674634
_cell_formula_units_Z  8
loop_
  _symmetry_equiv_pos_site_id
 _symmetry_equiv_pos_as_xyz
 1  'x, y, z'
loop_
 _atom_site_type_symbol
 _atom_site_label
 _atom_site_symmetry_multiplicity
 _atom_site_fract_x
 _atom_site_fract_y
 _atom_site_fract_z
 _atom_site_fract_occupancy
 Na  Na1  1  0.34375  0.82576  0.71753  1
 Na  Na2  1  0.84375  0.67424  0.28247  1
 Na  Na3  1  0.65625  0.32576  0.78247  1
 Na  Na4  1  0.15625  0.17424  0.21753  1
 Na  Na5  1  0.61584  0.11374  0.41901  1
 Na  Na6  1  0.11584  0.38626  0.58099  1
 Na  Na7  1  0.38416  0.61374  0.08099  1
 Na  Na8  1  0.88416  0.88626  0.91901  1
 P  P1  1  0.11633  0.94566  0.46523  1
 P  P2  1  0.61633  0.55434  0.53477  1
 P  P3  1  0.88367  0.44566  0.03477  1
 P  P4  1  0.38367  0.05434  0.96523  1
 P  P5  1  0.84736  0.82360  0.61845  1
 P  P6  1  0.34736  0.67640  0.38155  1
 P  P7  1  0.15264  0.32360  0.88155  1
 P  P8  1  0.65264  0.17640  0.11845  1
