CIF file written using JARVIS-Tools package.
data_Li4CO4
_symmetry_space_group_name_H-M  'Cm'
_cell_length_a       4.53554
_cell_length_b       4.53555
_cell_length_c       5.08385
_cell_angle_alpha    64.9158
_cell_angle_beta     64.9157
_cell_angle_gamma    92.6523

_symmetry_Int_Tables_number  8
_chemical_formula_structural  Li4CO4
_chemical_formula_sum  Li4CO4
_cell_volume  82.4634067605455
_cell_formula_units_Z  1
loop_
  _symmetry_equiv_pos_site_id
 _symmetry_equiv_pos_as_xyz
 1  'x, y, z'
loop_
 _atom_site_type_symbol
 _atom_site_label
 _atom_site_symmetry_multiplicity
 _atom_site_fract_x
 _atom_site_fract_y
 _atom_site_fract_z
 _atom_site_fract_occupancy
 C  C1  1  0.03144  0.03144  0.48462  1
 Li  Li1  1  0.73770  0.73770  0.07163  1
 Li  Li2  1  0.53763  0.03732  0.47211  1
 Li  Li3  1  0.03732  0.53763  0.47211  1
 Li  Li4  1  0.32728  0.32728  0.89177  1
 O  O1  1  0.75220  0.10658  0.68909  1
 O  O2  1  0.10658  0.75220  0.68909  1
 O  O3  1  0.94999  0.94999  0.27515  1
 O  O4  1  0.32177  0.32177  0.27580  1
