CIF file written using JARVIS-Tools package.
data_V2Se9
_symmetry_space_group_name_H-M  'C2/c'
_cell_length_a       8.18985
_cell_length_b       8.20318
_cell_length_c       8.20317
_cell_angle_alpha    99.4436
_cell_angle_beta     93.7294
_cell_angle_gamma    93.7294

_symmetry_Int_Tables_number  15
_chemical_formula_structural  V2Se9
_chemical_formula_sum  V4Se8
_cell_volume  540.8852695998606
_cell_formula_units_Z  2
loop_
  _symmetry_equiv_pos_site_id
 _symmetry_equiv_pos_as_xyz
 1  'x, y, z'
loop_
 _atom_site_type_symbol
 _atom_site_label
 _atom_site_symmetry_multiplicity
 _atom_site_fract_x
 _atom_site_fract_y
 _atom_site_fract_z
 _atom_site_fract_occupancy
 Se  Se1  1  0.05705  0.84662  0.67978  1
 Se  Se2  1  0.54149  0.29221  0.59306  1
 Se  Se3  1  0.95851  0.40694  0.70779  1
 Se  Se4  1  0.61289  0.91212  0.29084  1
 Se  Se5  1  0.88711  0.70916  0.08788  1
 Se  Se6  1  0.38711  0.08788  0.70916  1
 Se  Se7  1  0.11289  0.29084  0.91212  1
 Se  Se8  1  0.25000  0.41466  0.58534  1
 Se  Se9  1  0.55705  0.67978  0.84662  1
 Se  Se10  1  0.44295  0.32022  0.15338  1
 Se  Se11  1  0.75000  0.58534  0.41466  1
 Se  Se12  1  0.32333  0.67861  0.99347  1
 Se  Se13  1  0.17667  0.00653  0.32139  1
 Se  Se14  1  0.67667  0.32139  0.00653  1
 Se  Se15  1  0.82333  0.99347  0.67861  1
 Se  Se16  1  0.04149  0.59306  0.29221  1
 Se  Se17  1  0.45851  0.70779  0.40694  1
 Se  Se18  1  0.94295  0.15338  0.32022  1
 V  V1  1  0.58383  0.60115  0.13600  1
 V  V2  1  0.91617  0.86400  0.39885  1
 V  V3  1  0.41617  0.39885  0.86400  1
 V  V4  1  0.08383  0.13600  0.60115  1
