CIF file written using JARVIS-Tools package.
data_KHO
_symmetry_space_group_name_H-M  'P2_1/c'
_cell_length_a       5.61744
_cell_length_b       3.95532
_cell_length_c       7.88049
_cell_angle_alpha    90
_cell_angle_beta     110.954
_cell_angle_gamma    90

_symmetry_Int_Tables_number  14
_chemical_formula_structural  KHO
_chemical_formula_sum  K4H4O4
_cell_volume  163.5152182068308
_cell_formula_units_Z  4
loop_
  _symmetry_equiv_pos_site_id
 _symmetry_equiv_pos_as_xyz
 1  'x, y, z'
loop_
 _atom_site_type_symbol
 _atom_site_label
 _atom_site_symmetry_multiplicity
 _atom_site_fract_x
 _atom_site_fract_y
 _atom_site_fract_z
 _atom_site_fract_occupancy
 H  H1  1  0.93519  0.60814  0.73383  1
 H  H2  1  0.93519  0.89186  0.23383  1
 H  H3  1  0.06481  0.39186  0.26617  1
 H  H4  1  0.06481  0.10814  0.76617  1
 K  K1  1  0.28202  0.75154  0.56983  1
 K  K2  1  0.28202  0.74846  0.06983  1
 K  K3  1  0.71798  0.24846  0.43017  1
 K  K4  1  0.71798  0.25154  0.93017  1
 O  O1  1  0.79173  0.77020  0.70027  1
 O  O2  1  0.79173  0.72980  0.20027  1
 O  O3  1  0.20827  0.22980  0.29973  1
 O  O4  1  0.20827  0.27020  0.79973  1
