CIF file written using JARVIS-Tools package.
data_LiMnF3
_symmetry_space_group_name_H-M  'C2/m'
_cell_length_a       6.59111
_cell_length_b       6.59111
_cell_length_c       5.67568
_cell_angle_alpha    87.7006
_cell_angle_beta     92.2994
_cell_angle_gamma    95.4469

_symmetry_Int_Tables_number  12
_chemical_formula_structural  LiMnF3
_chemical_formula_sum  Li4Mn4F2
_cell_volume  245.09228455509069
_cell_formula_units_Z  4
loop_
  _symmetry_equiv_pos_site_id
 _symmetry_equiv_pos_as_xyz
 1  'x, y, z'
loop_
 _atom_site_type_symbol
 _atom_site_label
 _atom_site_symmetry_multiplicity
 _atom_site_fract_x
 _atom_site_fract_y
 _atom_site_fract_z
 _atom_site_fract_occupancy
 F  F1  1  0.28185  0.07821  0.33824  1
 F  F2  1  0.14044  0.85956  0.94668  1
 F  F3  1  0.62099  0.37901  0.39383  1
 F  F4  1  0.71815  0.92179  0.66176  1
 F  F5  1  0.07821  0.28185  0.66176  1
 F  F6  1  0.37901  0.62099  0.60617  1
 F  F7  1  0.22805  0.47436  0.15121  1
 F  F8  1  0.77195  0.52564  0.84879  1
 F  F9  1  0.47436  0.22805  0.84879  1
 F  F10  1  0.85956  0.14044  0.05332  1
 F  F11  1  0.92179  0.71815  0.33824  1
 F  F12  1  0.52564  0.77195  0.15121  1
 Li  Li1  1  0.66597  0.33403  0.08994  1
 Li  Li2  1  0.66981  0.66981  0.50000  1
 Li  Li3  1  0.33019  0.33019  0.50000  1
 Li  Li4  1  0.33403  0.66597  0.91006  1
 Mn  Mn1  1  0.76681  0.23319  0.66285  1
 Mn  Mn2  1  0.81213  0.81213  0.00000  1
 Mn  Mn3  1  0.18787  0.18787  -0.00000  1
 Mn  Mn4  1  0.23319  0.76681  0.33715  1
