CIF file written using JARVIS-Tools package.
data_Er2Mg
_symmetry_space_group_name_H-M  'Fmmm'
_cell_length_a       7.39588
_cell_length_b       7.38239
_cell_length_c       3.42451
_cell_angle_alpha    76.8211
_cell_angle_beta     76.3819
_cell_angle_gamma    26.7972

_symmetry_Int_Tables_number  69
_chemical_formula_structural  Er2Mg
_chemical_formula_sum  Er2Mg
_cell_volume  81.85722277612062
_cell_formula_units_Z  1
loop_
  _symmetry_equiv_pos_site_id
 _symmetry_equiv_pos_as_xyz
 1  'x, y, z'
loop_
 _atom_site_type_symbol
 _atom_site_label
 _atom_site_symmetry_multiplicity
 _atom_site_fract_x
 _atom_site_fract_y
 _atom_site_fract_z
 _atom_site_fract_occupancy
 Er  Er1  1  0.33611  0.33611  0.66389  1
 Er  Er2  1  0.66389  0.66389  0.33611  1
 Mg  Mg1  1  0.00000  0.00000  0.00000  1
