CIF file written using JARVIS-Tools package.
data_RbNiF3
_symmetry_space_group_name_H-M  'P6_3/mmc'
_cell_length_a       5.8755
_cell_length_b       5.8755
_cell_length_c       14.4027
_cell_angle_alpha    90
_cell_angle_beta     90
_cell_angle_gamma    120

_symmetry_Int_Tables_number  194
_chemical_formula_structural  RbNiF3
_chemical_formula_sum  Rb6Ni6F8
_cell_volume  430.5905311323482
_cell_formula_units_Z  6
loop_
  _symmetry_equiv_pos_site_id
 _symmetry_equiv_pos_as_xyz
 1  'x, y, z'
loop_
 _atom_site_type_symbol
 _atom_site_label
 _atom_site_symmetry_multiplicity
 _atom_site_fract_x
 _atom_site_fract_y
 _atom_site_fract_z
 _atom_site_fract_occupancy
 F  F1  1  0.51700  0.03401  0.75000  1
 F  F2  1  0.66950  0.83475  0.41966  1
 F  F3  1  0.16525  0.83475  0.41966  1
 F  F4  1  0.03401  0.51700  0.25000  1
 F  F5  1  0.83475  0.66950  0.91966  1
 F  F6  1  0.83475  0.16525  0.58034  1
 F  F7  1  0.33050  0.16525  0.91966  1
 F  F8  1  0.83475  0.16525  0.91966  1
 F  F9  1  0.16525  0.33050  0.41966  1
 F  F10  1  0.16525  0.33050  0.08034  1
 F  F11  1  0.33050  0.16525  0.58034  1
 F  F12  1  0.16525  0.83475  0.08034  1
 F  F13  1  0.48300  0.51700  0.25000  1
 F  F14  1  0.96599  0.48300  0.75000  1
 F  F15  1  0.51700  0.48300  0.75000  1
 F  F16  1  0.48300  0.96599  0.25000  1
 F  F17  1  0.83475  0.66950  0.58034  1
 F  F18  1  0.66950  0.83475  0.08034  1
 Ni  Ni1  1  0.33333  0.66667  0.34433  1
 Ni  Ni2  1  0.66667  0.33333  0.65567  1
 Ni  Ni3  1  0.33333  0.66667  0.15567  1
 Ni  Ni4  1  0.66667  0.33333  0.84433  1
 Ni  Ni5  1  0.00000  0.00000  0.50000  1
 Ni  Ni6  1  0.00000  0.00000  0.00000  1
 Rb  Rb1  1  0.00000  0.00000  0.25000  1
 Rb  Rb2  1  0.00000  0.00000  0.75000  1
 Rb  Rb3  1  0.66667  0.33333  0.09229  1
 Rb  Rb4  1  0.33333  0.66667  0.59229  1
 Rb  Rb5  1  0.33333  0.66667  0.90771  1
 Rb  Rb6  1  0.66667  0.33333  0.40771  1
