CIF file written using JARVIS-Tools package.
data_SeN
_symmetry_space_group_name_H-M  'C2/c'
_cell_length_a       6.32082
_cell_length_b       6.93814
_cell_length_c       6.93814
_cell_angle_alpha    90.1815
_cell_angle_beta     98.8763
_cell_angle_gamma    98.8764

_symmetry_Int_Tables_number  15
_chemical_formula_structural  SeN
_chemical_formula_sum  Se8N8
_cell_volume  296.91219316151967
_cell_formula_units_Z  8
loop_
  _symmetry_equiv_pos_site_id
 _symmetry_equiv_pos_as_xyz
 1  'x, y, z'
loop_
 _atom_site_type_symbol
 _atom_site_label
 _atom_site_symmetry_multiplicity
 _atom_site_fract_x
 _atom_site_fract_y
 _atom_site_fract_z
 _atom_site_fract_occupancy
 N  N1  1  0.25000  0.41260  0.58740  1
 N  N2  1  0.26991  0.00781  0.59279  1
 N  N3  1  0.75000  0.99249  0.00751  1
 N  N4  1  0.25000  0.00751  0.99249  1
 N  N5  1  0.75000  0.58740  0.41260  1
 N  N6  1  0.23009  0.40721  0.99219  1
 N  N7  1  0.76991  0.59279  0.00781  1
 N  N8  1  0.73009  0.99219  0.40721  1
 Se  Se1  1  0.55821  0.75732  0.38325  1
 Se  Se2  1  0.42748  0.24092  0.02521  1
 Se  Se3  1  0.05821  0.38325  0.75732  1
 Se  Se4  1  0.57252  0.75908  0.97479  1
 Se  Se5  1  0.44179  0.24268  0.61675  1
 Se  Se6  1  0.92748  0.02521  0.24092  1
 Se  Se7  1  0.94179  0.61675  0.24268  1
 Se  Se8  1  0.07252  0.97479  0.75908  1
