CIF file written using JARVIS-Tools package.
data_CaNiP2O7
_symmetry_space_group_name_H-M  'P2_1/c'
_cell_length_a       7.27835
_cell_length_b       8.66942
_cell_length_c       9.02556
_cell_angle_alpha    90
_cell_angle_beta     116.659
_cell_angle_gamma    90

_symmetry_Int_Tables_number  14
_chemical_formula_structural  CaNiP2O7
_chemical_formula_sum  Ca4Ni4P8O28
_cell_volume  508.96010280142315
_cell_formula_units_Z  4
loop_
  _symmetry_equiv_pos_site_id
 _symmetry_equiv_pos_as_xyz
 1  'x, y, z'
loop_
 _atom_site_type_symbol
 _atom_site_label
 _atom_site_symmetry_multiplicity
 _atom_site_fract_x
 _atom_site_fract_y
 _atom_site_fract_z
 _atom_site_fract_occupancy
 Ca  Ca1  1  0.26611  0.95298  0.10486  1
 Ca  Ca2  1  0.73389  0.45298  0.39514  1
 Ca  Ca3  1  0.26611  0.54702  0.60486  1
 Ca  Ca4  1  0.73389  0.04702  0.89514  1
 Ni  Ni1  1  0.77152  0.07078  0.38168  1
 Ni  Ni2  1  0.22848  0.92922  0.61832  1
 Ni  Ni3  1  0.22848  0.57078  0.11832  1
 Ni  Ni4  1  0.77152  0.42922  0.88168  1
 O  O1  1  0.55678  0.89528  0.37914  1
 O  O2  1  0.25438  0.30782  0.39631  1
 O  O3  1  0.01345  0.08246  0.62613  1
 O  O4  1  0.11461  0.76398  0.19614  1
 O  O5  1  0.01345  0.41754  0.12613  1
 O  O6  1  0.98655  0.91754  0.37387  1
 O  O7  1  0.60944  0.22347  0.44798  1
 O  O8  1  0.74562  0.80782  0.10369  1
 O  O9  1  0.55678  0.60472  0.87914  1
 O  O10  1  0.39056  0.77653  0.55202  1
 O  O11  1  0.98655  0.58246  0.87387  1
 O  O12  1  0.44322  0.39528  0.12086  1
 O  O13  1  0.94630  0.87531  0.85223  1
 O  O14  1  0.94630  0.62469  0.35223  1
 O  O15  1  0.25438  0.19218  0.89631  1
 O  O16  1  0.54163  0.10556  0.14243  1
 O  O17  1  0.44322  0.10472  0.62086  1
 O  O18  1  0.54163  0.39444  0.64243  1
 O  O19  1  0.05370  0.37531  0.64777  1
 O  O20  1  0.11461  0.73602  0.69614  1
 O  O21  1  0.05370  0.12469  0.14777  1
 O  O22  1  0.88539  0.23602  0.80386  1
 O  O23  1  0.45837  0.89444  0.85757  1
 O  O24  1  0.74562  0.69218  0.60369  1
 O  O25  1  0.39056  0.72347  0.05202  1
 O  O26  1  0.88539  0.26398  0.30386  1
 O  O27  1  0.45837  0.60556  0.35757  1
 O  O28  1  0.60944  0.27653  0.94798  1
 P  P1  1  0.95831  0.72758  0.76600  1
 P  P2  1  0.47510  0.25348  0.03608  1
 P  P3  1  0.95831  0.77242  0.26600  1
 P  P4  1  0.52490  0.74652  0.96392  1
 P  P5  1  0.04169  0.22758  0.73400  1
 P  P6  1  0.52490  0.75348  0.46392  1
 P  P7  1  0.04169  0.27242  0.23400  1
 P  P8  1  0.47510  0.24652  0.53608  1
