CIF file written using JARVIS-Tools package.
data_TbMoO4F
_symmetry_space_group_name_H-M  'P2_1/c'
_cell_length_a       5.23518
_cell_length_b       12.351
_cell_length_c       6.7082
_cell_angle_alpha    90
_cell_angle_beta     113.045
_cell_angle_gamma    90

_symmetry_Int_Tables_number  14
_chemical_formula_structural  TbMoO4F
_chemical_formula_sum  Tb4Mo4O6F4
_cell_volume  399.13765792302627
_cell_formula_units_Z  4
loop_
  _symmetry_equiv_pos_site_id
 _symmetry_equiv_pos_as_xyz
 1  'x, y, z'
loop_
 _atom_site_type_symbol
 _atom_site_label
 _atom_site_symmetry_multiplicity
 _atom_site_fract_x
 _atom_site_fract_y
 _atom_site_fract_z
 _atom_site_fract_occupancy
 F  F1  1  0.45165  0.59972  0.53612  1
 F  F2  1  0.54835  0.40028  0.46388  1
 F  F3  1  0.45165  0.90028  0.03612  1
 F  F4  1  0.54835  0.09972  0.96388  1
 Mo  Mo1  1  0.07650  0.14383  0.62889  1
 Mo  Mo2  1  0.07650  0.35617  0.12889  1
 Mo  Mo3  1  0.92350  0.85617  0.37111  1
 Mo  Mo4  1  0.92350  0.64383  0.87111  1
 O  O1  1  0.00487  0.06944  0.83566  1
 O  O2  1  0.00487  0.43056  0.33566  1
 O  O3  1  0.76166  0.34570  0.90751  1
 O  O4  1  0.30644  0.06583  0.53831  1
 O  O5  1  0.81024  0.77695  0.79381  1
 O  O6  1  0.18976  0.22305  0.20619  1
 O  O7  1  0.76166  0.15430  0.40751  1
 O  O8  1  0.81024  0.72305  0.29381  1
 O  O9  1  0.99513  0.56944  0.66434  1
 O  O10  1  0.23834  0.84570  0.59249  1
 O  O11  1  0.99513  0.93056  0.16434  1
 O  O12  1  0.69356  0.93417  0.46169  1
 O  O13  1  0.18976  0.27695  0.70619  1
 O  O14  1  0.23834  0.65430  0.09249  1
 O  O15  1  0.30644  0.43417  0.03831  1
 O  O16  1  0.69356  0.56583  0.96169  1
 Tb  Tb1  1  0.36122  0.05134  0.20010  1
 Tb  Tb2  1  0.63878  0.94866  0.79990  1
 Tb  Tb3  1  0.36122  0.44866  0.70010  1
 Tb  Tb4  1  0.63878  0.55134  0.29990  1
