CIF file written using JARVIS-Tools package.
data_LiPF6
_symmetry_space_group_name_H-M  'R-3'
_cell_length_a       5.07527
_cell_length_b       5.07526
_cell_length_c       5.07527
_cell_angle_alpha    56.6213
_cell_angle_beta     56.6213
_cell_angle_gamma    56.6212

_symmetry_Int_Tables_number  148
_chemical_formula_structural  LiPF6
_chemical_formula_sum  LiPF6
_cell_volume  85.225210239799
_cell_formula_units_Z  1
loop_
  _symmetry_equiv_pos_site_id
 _symmetry_equiv_pos_as_xyz
 1  'x, y, z'
loop_
 _atom_site_type_symbol
 _atom_site_label
 _atom_site_symmetry_multiplicity
 _atom_site_fract_x
 _atom_site_fract_y
 _atom_site_fract_z
 _atom_site_fract_occupancy
 F  F1  1  0.33270  0.78137  0.10831  1
 F  F2  1  0.10831  0.33270  0.78137  1
 F  F3  1  0.78137  0.10831  0.33270  1
 F  F4  1  0.89169  0.66730  0.21863  1
 F  F5  1  0.21863  0.89169  0.66730  1
 F  F6  1  0.66730  0.21863  0.89169  1
 Li  Li1  1  0.50000  0.50000  0.50000  1
 P  P1  1  0.00000  0.00000  0.00000  1
