CIF file written using JARVIS-Tools package.
data_LiMnO2
_symmetry_space_group_name_H-M  'C2/m'
_cell_length_a       3.08461
_cell_length_b       5.03967
_cell_length_c       5.04719
_cell_angle_alpha    105.732
_cell_angle_beta     86.1414
_cell_angle_gamma    84.1849

_symmetry_Int_Tables_number  12
_chemical_formula_structural  LiMnO2
_chemical_formula_sum  Li2Mn2O4
_cell_volume  74.76405236530194
_cell_formula_units_Z  2
loop_
  _symmetry_equiv_pos_site_id
 _symmetry_equiv_pos_as_xyz
 1  'x, y, z'
loop_
 _atom_site_type_symbol
 _atom_site_label
 _atom_site_symmetry_multiplicity
 _atom_site_fract_x
 _atom_site_fract_y
 _atom_site_fract_z
 _atom_site_fract_occupancy
 Li  Li1  1  1.00000  0.50000  0.50000  1
 Li  Li2  1  0.50000  1.00000  0.50000  1
 Mn  Mn1  1  0.50000  0.50000  0.00000  1
 Mn  Mn2  1  0.00000  0.00000  0.00000  1
 O  O1  1  0.53134  0.25553  0.23509  1
 O  O2  1  0.03134  0.75553  0.23509  1
 O  O3  1  0.46866  0.74447  0.76491  1
 O  O4  1  0.96866  0.24447  0.76491  1
