CIF file written using JARVIS-Tools package.
data_Hf2Al3Zn
_symmetry_space_group_name_H-M  'R-3m'
_cell_length_a       5.20346
_cell_length_b       5.20346
_cell_length_c       5.20345
_cell_angle_alpha    60.9457
_cell_angle_beta     60.9457
_cell_angle_gamma    60.9457

_symmetry_Int_Tables_number  166
_chemical_formula_structural  Hf2Al3Zn
_chemical_formula_sum  Hf2Al3Zn
_cell_volume  101.7462361347736
_cell_formula_units_Z  1
loop_
  _symmetry_equiv_pos_site_id
 _symmetry_equiv_pos_as_xyz
 1  'x, y, z'
loop_
 _atom_site_type_symbol
 _atom_site_label
 _atom_site_symmetry_multiplicity
 _atom_site_fract_x
 _atom_site_fract_y
 _atom_site_fract_z
 _atom_site_fract_occupancy
 Al  Al1  1  0.00000  0.50000  0.00000  1
 Al  Al2  1  0.50000  0.00000  0.00000  1
 Al  Al3  1  0.00000  -0.00000  0.50000  1
 Hf  Hf1  1  0.62420  0.62420  0.62420  1
 Hf  Hf2  1  0.37580  0.37580  0.37580  1
 Zn  Zn1  1  0.00000  0.00000  0.00000  1
