CIF file written using JARVIS-Tools package.
data_Co2NiN2
_symmetry_space_group_name_H-M  'I4/mmm'
_cell_length_a       2.77423
_cell_length_b       2.77423
_cell_length_c       6.21533
_cell_angle_alpha    102.896
_cell_angle_beta     102.896
_cell_angle_gamma    90

_symmetry_Int_Tables_number  139
_chemical_formula_structural  Co2NiN2
_chemical_formula_sum  Co2NiN2
_cell_volume  45.390284027588685
_cell_formula_units_Z  1
loop_
  _symmetry_equiv_pos_site_id
 _symmetry_equiv_pos_as_xyz
 1  'x, y, z'
loop_
 _atom_site_type_symbol
 _atom_site_label
 _atom_site_symmetry_multiplicity
 _atom_site_fract_x
 _atom_site_fract_y
 _atom_site_fract_z
 _atom_site_fract_occupancy
 Co  Co1  1  0.81914  0.81914  0.13829  1
 Co  Co2  1  0.18086  0.18086  0.86171  1
 N  N1  1  0.34625  0.34625  0.19251  1
 N  N2  1  0.65375  0.65375  0.80749  1
 Ni  Ni1  1  0.50000  0.50000  0.50000  1
