CIF file written using JARVIS-Tools package.
data_MnB
_symmetry_space_group_name_H-M  'P4_2/ncm'
_cell_length_a       6.67596
_cell_length_b       6.67596
_cell_length_c       3.95762
_cell_angle_alpha    90
_cell_angle_beta     90
_cell_angle_gamma    90

_symmetry_Int_Tables_number  138
_chemical_formula_structural  MnB
_chemical_formula_sum  Mn8B8
_cell_volume  176.38511045282067
_cell_formula_units_Z  8
loop_
  _symmetry_equiv_pos_site_id
 _symmetry_equiv_pos_as_xyz
 1  'x, y, z'
loop_
 _atom_site_type_symbol
 _atom_site_label
 _atom_site_symmetry_multiplicity
 _atom_site_fract_x
 _atom_site_fract_y
 _atom_site_fract_z
 _atom_site_fract_occupancy
 B  B1  1  0.32299  0.82299  0.37199  1
 B  B2  1  0.82299  0.32299  0.12801  1
 B  B3  1  0.17701  0.67701  0.12801  1
 B  B4  1  0.82299  0.67701  0.62801  1
 B  B5  1  0.67701  0.82299  0.87199  1
 B  B6  1  0.32299  0.17701  0.87199  1
 B  B7  1  0.17701  0.32299  0.62801  1
 B  B8  1  0.67701  0.17701  0.37199  1
 Mn  Mn1  1  0.13133  0.36867  0.13125  1
 Mn  Mn2  1  0.36867  0.13133  0.36875  1
 Mn  Mn3  1  0.13133  0.63133  0.63125  1
 Mn  Mn4  1  0.63133  0.13133  0.86875  1
 Mn  Mn5  1  0.86867  0.63133  0.13125  1
 Mn  Mn6  1  0.36867  0.86867  0.86875  1
 Mn  Mn7  1  0.86867  0.36867  0.63125  1
 Mn  Mn8  1  0.63133  0.86867  0.36875  1
