CIF file written using JARVIS-Tools package.
data_K4BaV2S8
_symmetry_space_group_name_H-M  'Ibam'
_cell_length_a       8.95971
_cell_length_b       9.9132
_cell_length_c       11.3371
_cell_angle_alpha    115.925
_cell_angle_beta     113.275
_cell_angle_gamma    90

_symmetry_Int_Tables_number  72
_chemical_formula_structural  K4BaV2S8
_chemical_formula_sum  K8Ba2V4S6
_cell_volume  813.5257233673798
_cell_formula_units_Z  2
loop_
  _symmetry_equiv_pos_site_id
 _symmetry_equiv_pos_as_xyz
 1  'x, y, z'
loop_
 _atom_site_type_symbol
 _atom_site_label
 _atom_site_symmetry_multiplicity
 _atom_site_fract_x
 _atom_site_fract_y
 _atom_site_fract_z
 _atom_site_fract_occupancy
 Ba  Ba1  1  -0.00000  0.25000  -0.00000  1
 Ba  Ba2  1  -0.00000  0.75000  -0.00000  1
 K  K1  1  0.25003  0.50003  0.50005  1
 K  K2  1  0.55041  0.92450  0.84900  1
 K  K3  1  0.44959  0.07550  0.15100  1
 K  K4  1  0.25003  0.00003  0.50005  1
 K  K5  1  0.29859  0.42450  0.84900  1
 K  K6  1  0.70141  0.57550  0.15100  1
 K  K7  1  0.74997  0.49997  0.49995  1
 K  K8  1  0.74997  -0.00003  0.49995  1
 S  S1  1  0.60063  0.58927  0.82256  1
 S  S2  1  0.39937  0.76671  0.17744  1
 S  S3  1  0.98098  0.74831  0.49662  1
 S  S4  1  0.86571  0.89149  0.78298  1
 S  S5  1  0.39937  0.41073  0.17744  1
 S  S6  1  0.22193  0.08927  0.82256  1
 S  S7  1  0.48436  0.75169  0.50338  1
 S  S8  1  0.60063  0.23329  0.82256  1
 S  S9  1  0.77807  0.91073  0.17744  1
 S  S10  1  0.51564  0.24831  0.49662  1
 S  S11  1  0.77807  0.26671  0.17744  1
 S  S12  1  0.22193  0.73329  0.82256  1
 S  S13  1  0.08273  0.60851  0.21702  1
 S  S14  1  0.01902  0.25169  0.50338  1
 S  S15  1  0.13429  0.10851  0.21702  1
 S  S16  1  0.91727  0.39149  0.78298  1
 V  V1  1  0.07478  0.86485  0.72970  1
 V  V2  1  0.92522  0.13515  0.27030  1
 V  V3  1  0.65492  0.36485  0.72970  1
 V  V4  1  0.34508  0.63515  0.27030  1
