CIF file written using JARVIS-Tools package.
data_TlF3
_symmetry_space_group_name_H-M  'Pnma'
_cell_length_a       4.89248
_cell_length_b       5.95359
_cell_length_c       7.11552
_cell_angle_alpha    90
_cell_angle_beta     90
_cell_angle_gamma    90

_symmetry_Int_Tables_number  62
_chemical_formula_structural  TlF3
_chemical_formula_sum  Tl4F2
_cell_volume  207.25961583169502
_cell_formula_units_Z  4
loop_
  _symmetry_equiv_pos_site_id
 _symmetry_equiv_pos_as_xyz
 1  'x, y, z'
loop_
 _atom_site_type_symbol
 _atom_site_label
 _atom_site_symmetry_multiplicity
 _atom_site_fract_x
 _atom_site_fract_y
 _atom_site_fract_z
 _atom_site_fract_occupancy
 F  F1  1  0.34100  0.16400  0.43264  1
 F  F2  1  0.84100  0.33600  0.56736  1
 F  F3  1  0.15900  0.66400  0.06736  1
 F  F4  1  0.65900  0.83600  0.93264  1
 F  F5  1  0.62823  0.53305  0.25000  1
 F  F6  1  0.12823  0.96695  0.75000  1
 F  F7  1  0.87177  0.03305  0.25000  1
 F  F8  1  0.37177  0.46695  0.75000  1
 F  F9  1  0.34100  0.16400  0.06736  1
 F  F10  1  0.84100  0.33600  0.93264  1
 F  F11  1  0.15900  0.66400  0.43264  1
 F  F12  1  0.65900  0.83600  0.56736  1
 Tl  Tl1  1  0.96121  0.62913  0.75000  1
 Tl  Tl2  1  0.46121  0.87087  0.25000  1
 Tl  Tl3  1  0.53879  0.12913  0.75000  1
 Tl  Tl4  1  0.03879  0.37087  0.25000  1
