CIF file written using JARVIS-Tools package.
data_Th2FeSi3
_symmetry_space_group_name_H-M  'Imm2'
_cell_length_a       7.62971
_cell_length_b       7.6297
_cell_length_c       7.62971
_cell_angle_alpha    149.196
_cell_angle_beta     148.024
_cell_angle_gamma    44.9934

_symmetry_Int_Tables_number  44
_chemical_formula_structural  Th2FeSi3
_chemical_formula_sum  Th2FeSi3
_cell_volume  120.07438311644742
_cell_formula_units_Z  1
loop_
  _symmetry_equiv_pos_site_id
 _symmetry_equiv_pos_as_xyz
 1  'x, y, z'
loop_
 _atom_site_type_symbol
 _atom_site_label
 _atom_site_symmetry_multiplicity
 _atom_site_fract_x
 _atom_site_fract_y
 _atom_site_fract_z
 _atom_site_fract_occupancy
 Fe  Fe1  1  0.16173  0.66173  0.50000  1
 Si  Si1  1  0.58972  0.58972  -0.00000  1
 Si  Si2  1  0.32335  0.82335  0.50000  1
 Si  Si3  1  0.41802  0.41802  -0.00000  1
 Th  Th1  1  0.75088  0.25088  0.50000  1
 Th  Th2  1  0.00631  0.00631  -0.00000  1
