CIF file written using JARVIS-Tools package.
data_CaNiO3
_symmetry_space_group_name_H-M  'Pnma'
_cell_length_a       5.25685
_cell_length_b       5.32751
_cell_length_c       7.42887
_cell_angle_alpha    90
_cell_angle_beta     90
_cell_angle_gamma    90

_symmetry_Int_Tables_number  62
_chemical_formula_structural  CaNiO3
_chemical_formula_sum  Ca4Ni4O2
_cell_volume  208.0525402248814
_cell_formula_units_Z  4
loop_
  _symmetry_equiv_pos_site_id
 _symmetry_equiv_pos_as_xyz
 1  'x, y, z'
loop_
 _atom_site_type_symbol
 _atom_site_label
 _atom_site_symmetry_multiplicity
 _atom_site_fract_x
 _atom_site_fract_y
 _atom_site_fract_z
 _atom_site_fract_occupancy
 Ca  Ca1  1  0.98837  0.05396  0.25000  1
 Ca  Ca2  1  0.48837  0.44604  0.75000  1
 Ca  Ca3  1  0.51163  0.55396  0.25000  1
 Ca  Ca4  1  0.01163  0.94604  0.75000  1
 Ni  Ni1  1  0.50000  0.00000  0.00000  1
 Ni  Ni2  1  0.00000  0.50000  0.00000  1
 Ni  Ni3  1  0.00000  0.50000  0.50000  1
 Ni  Ni4  1  0.50000  0.00000  0.50000  1
 O  O1  1  0.91832  0.51299  0.75000  1
 O  O2  1  0.29750  0.70500  0.54089  1
 O  O3  1  0.58168  0.01299  0.75000  1
 O  O4  1  0.08168  0.48701  0.25000  1
 O  O5  1  0.41832  0.98701  0.25000  1
 O  O6  1  0.70250  0.29500  0.04089  1
 O  O7  1  0.79750  0.79500  0.04089  1
 O  O8  1  0.29750  0.70500  0.95911  1
 O  O9  1  0.70250  0.29500  0.45911  1
 O  O10  1  0.20250  0.20500  0.95911  1
 O  O11  1  0.20250  0.20500  0.54089  1
 O  O12  1  0.79750  0.79500  0.45911  1
