CIF file written using JARVIS-Tools package.
data_Li4H6Os
_symmetry_space_group_name_H-M  'P1'
_cell_length_a       5.76865
_cell_length_b       5.76865
_cell_length_c       5.76865
_cell_angle_alpha    89.9408
_cell_angle_beta     89.9408
_cell_angle_gamma    89.9408

_symmetry_Int_Tables_number  1
_chemical_formula_structural  Li4H6Os
_chemical_formula_sum  Li8H2Os2
_cell_volume  191.96476735800584
_cell_formula_units_Z  2
loop_
  _symmetry_equiv_pos_site_id
 _symmetry_equiv_pos_as_xyz
 1  'x, y, z'
loop_
 _atom_site_type_symbol
 _atom_site_label
 _atom_site_symmetry_multiplicity
 _atom_site_fract_x
 _atom_site_fract_y
 _atom_site_fract_z
 _atom_site_fract_occupancy
 H  H1  1  0.95381  0.05556  0.29251  1
 H  H2  1  0.54619  0.20749  0.44444  1
 H  H3  1  0.20749  0.44444  0.54619  1
 H  H4  1  0.50000  0.50000  0.50000  1
 H  H5  1  0.04619  0.94444  0.70749  1
 H  H6  1  0.94444  0.70749  0.04619  1
 H  H7  1  0.44444  0.54619  0.20749  1
 H  H8  1  0.45381  0.79251  0.55556  1
 H  H9  1  0.29251  0.95381  0.05556  1
 H  H10  1  0.05556  0.29251  0.95381  1
 H  H11  1  0.79251  0.55556  0.45381  1
 H  H12  1  0.55556  0.45381  0.79251  1
 Li  Li1  1  0.25000  0.25000  0.25000  1
 Li  Li2  1  0.36187  0.13813  0.75000  1
 Li  Li3  1  0.75000  0.36187  0.13813  1
 Li  Li4  1  0.13813  0.75000  0.36187  1
 Li  Li5  1  0.25000  0.63813  0.86187  1
 Li  Li6  1  0.86187  0.25000  0.63813  1
 Li  Li7  1  0.63813  0.86187  0.25000  1
 Li  Li8  1  0.75000  0.75000  0.75000  1
 Os  Os1  1  0.70749  0.04619  0.94444  1
 Os  Os2  1  0.00000  0.00000  0.00000  1
