CIF file written using JARVIS-Tools package.
data_CaSO4
_symmetry_space_group_name_H-M  'Pnma'
_cell_length_a       5.32665
_cell_length_b       6.78858
_cell_length_c       7.84251
_cell_angle_alpha    90
_cell_angle_beta     90
_cell_angle_gamma    90

_symmetry_Int_Tables_number  62
_chemical_formula_structural  CaSO4
_chemical_formula_sum  Ca4S4O6
_cell_volume  283.58866828903
_cell_formula_units_Z  4
loop_
  _symmetry_equiv_pos_site_id
 _symmetry_equiv_pos_as_xyz
 1  'x, y, z'
loop_
 _atom_site_type_symbol
 _atom_site_label
 _atom_site_symmetry_multiplicity
 _atom_site_fract_x
 _atom_site_fract_y
 _atom_site_fract_z
 _atom_site_fract_occupancy
 Ca  Ca1  1  0.25000  0.17347  0.18880  1
 Ca  Ca2  1  0.75000  0.82653  0.81120  1
 Ca  Ca3  1  0.25000  0.32653  0.68880  1
 Ca  Ca4  1  0.75000  0.67347  0.31120  1
 O  O1  1  0.25000  0.92410  0.38939  1
 O  O2  1  0.75000  0.07590  0.61061  1
 O  O3  1  0.47855  0.80438  0.06596  1
 O  O4  1  0.47855  0.69562  0.56596  1
 O  O5  1  0.75000  0.42410  0.11061  1
 O  O6  1  0.02145  0.80438  0.06596  1
 O  O7  1  0.25000  0.53770  0.19907  1
 O  O8  1  0.97855  0.30438  0.43404  1
 O  O9  1  0.97855  0.19562  0.93404  1
 O  O10  1  0.02145  0.69562  0.56596  1
 O  O11  1  0.25000  0.57590  0.88939  1
 O  O12  1  0.75000  0.46230  0.80093  1
 O  O13  1  0.52145  0.19562  0.93404  1
 O  O14  1  0.25000  0.96230  0.69907  1
 O  O15  1  0.75000  0.03770  0.30093  1
 O  O16  1  0.52145  0.30438  0.43404  1
 S  S1  1  0.25000  0.67737  0.05421  1
 S  S2  1  0.75000  0.17737  0.44579  1
 S  S3  1  0.25000  0.82263  0.55421  1
 S  S4  1  0.75000  0.32263  0.94579  1
