CIF file written using JARVIS-Tools package.
data_MoPb3Cl2O5
_symmetry_space_group_name_H-M  'Cmcm'
_cell_length_a       5.63265
_cell_length_b       7.13209
_cell_length_c       11.1303
_cell_angle_alpha    90
_cell_angle_beta     90
_cell_angle_gamma    113.258

_symmetry_Int_Tables_number  63
_chemical_formula_structural  MoPb3Cl2O5
_chemical_formula_sum  Mo2Pb6Cl4O0
_cell_volume  410.7940643748772
_cell_formula_units_Z  2
loop_
  _symmetry_equiv_pos_site_id
 _symmetry_equiv_pos_as_xyz
 1  'x, y, z'
loop_
 _atom_site_type_symbol
 _atom_site_label
 _atom_site_symmetry_multiplicity
 _atom_site_fract_x
 _atom_site_fract_y
 _atom_site_fract_z
 _atom_site_fract_occupancy
 Cl  Cl1  1  0.48216  0.96432  0.25000  1
 Cl  Cl2  1  0.00000  0.00000  0.50000  1
 Cl  Cl3  1  0.51784  0.03568  0.75000  1
 Cl  Cl4  1  0.00000  0.00000  0.00000  1
 Mo  Mo1  1  0.23374  0.46747  0.25000  1
 Mo  Mo2  1  0.76626  0.53253  0.75000  1
 O  O1  1  0.03777  0.54165  0.36884  1
 O  O2  1  0.03777  0.54165  0.13116  1
 O  O3  1  0.49612  0.45835  0.86884  1
 O  O4  1  0.89628  0.79256  0.75000  1
 O  O5  1  0.96223  0.45835  0.63116  1
 O  O6  1  0.96223  0.45835  0.86884  1
 O  O7  1  0.49612  0.45835  0.63116  1
 O  O8  1  0.50388  0.54165  0.13116  1
 O  O9  1  0.10372  0.20744  0.25000  1
 O  O10  1  0.50388  0.54165  0.36884  1
 Pb  Pb1  1  0.34946  0.69891  0.53281  1
 Pb  Pb2  1  0.65054  0.30109  0.03281  1
 Pb  Pb3  1  0.89920  0.79840  0.25000  1
 Pb  Pb4  1  0.65054  0.30109  0.46719  1
 Pb  Pb5  1  0.34946  0.69891  0.96719  1
 Pb  Pb6  1  0.10080  0.20160  0.75000  1
