CIF file written using JARVIS-Tools package.
data_Na2SO4
_symmetry_space_group_name_H-M  'Fddd'
_cell_length_a       5.69896
_cell_length_b       5.69896
_cell_length_c       6.82279
_cell_angle_alpha    102.812
_cell_angle_beta     102.812
_cell_angle_gamma    117.971

_symmetry_Int_Tables_number  70
_chemical_formula_structural  Na2SO4
_chemical_formula_sum  Na4S2O8
_cell_volume  176.65325853953144
_cell_formula_units_Z  2
loop_
  _symmetry_equiv_pos_site_id
 _symmetry_equiv_pos_as_xyz
 1  'x, y, z'
loop_
 _atom_site_type_symbol
 _atom_site_label
 _atom_site_symmetry_multiplicity
 _atom_site_fract_x
 _atom_site_fract_y
 _atom_site_fract_z
 _atom_site_fract_occupancy
 Na  Na1  1  0.55855  0.44145  0.25000  1
 Na  Na2  1  0.19145  0.80855  0.25000  1
 Na  Na3  1  0.80855  0.19145  0.75000  1
 Na  Na4  1  0.44145  0.55855  0.75000  1
 O  O1  1  0.24957  0.17942  0.88638  1
 O  O2  1  0.29304  0.86318  0.61362  1
 O  O3  1  0.82058  0.75043  0.61362  1
 O  O4  1  0.13682  0.70696  0.88638  1
 O  O5  1  0.75043  0.82058  0.11362  1
 O  O6  1  0.70696  0.13682  0.38638  1
 O  O7  1  0.86318  0.29304  0.11362  1
 O  O8  1  0.17942  0.24957  0.38638  1
 S  S1  1  0.87500  0.12500  0.25000  1
 S  S2  1  0.12500  0.87500  0.75000  1
