CIF file written using JARVIS-Tools package.
data_FeCl4
_symmetry_space_group_name_H-M  'Cmmm'
_cell_length_a       5.61835
_cell_length_b       5.61835
_cell_length_c       3.40134
_cell_angle_alpha    90
_cell_angle_beta     90
_cell_angle_gamma    85.9859

_symmetry_Int_Tables_number  65
_chemical_formula_structural  FeCl4
_chemical_formula_sum  FeCl4
_cell_volume  107.10284286411627
_cell_formula_units_Z  1
loop_
  _symmetry_equiv_pos_site_id
 _symmetry_equiv_pos_as_xyz
 1  'x, y, z'
loop_
 _atom_site_type_symbol
 _atom_site_label
 _atom_site_symmetry_multiplicity
 _atom_site_fract_x
 _atom_site_fract_y
 _atom_site_fract_z
 _atom_site_fract_occupancy
 Cl  Cl1  1  0.71603  0.28397  0.50000  1
 Cl  Cl2  1  0.81247  0.81247  0.00000  1
 Cl  Cl3  1  0.18753  0.18753  0.00000  1
 Cl  Cl4  1  0.28397  0.71603  0.50000  1
 Fe  Fe1  1  0.00000  0.00000  0.50000  1
