CIF file written using JARVIS-Tools package.
data_WO3
_symmetry_space_group_name_H-M  'Cmcm'
_cell_length_a       3.88484
_cell_length_b       3.88485
_cell_length_c       7.55276
_cell_angle_alpha    90
_cell_angle_beta     90
_cell_angle_gamma    90.188

_symmetry_Int_Tables_number  63
_chemical_formula_structural  WO3
_chemical_formula_sum  W2O6
_cell_volume  113.98561876472318
_cell_formula_units_Z  2
loop_
  _symmetry_equiv_pos_site_id
 _symmetry_equiv_pos_as_xyz
 1  'x, y, z'
loop_
 _atom_site_type_symbol
 _atom_site_label
 _atom_site_symmetry_multiplicity
 _atom_site_fract_x
 _atom_site_fract_y
 _atom_site_fract_z
 _atom_site_fract_occupancy
 O  O1  1  0.50000  0.50000  0.50000  1
 O  O2  1  0.50000  0.50000  0.00000  1
 O  O3  1  0.48168  0.01727  0.25000  1
 O  O4  1  0.98273  0.51832  0.25000  1
 O  O5  1  0.51832  0.98273  0.75000  1
 O  O6  1  0.01727  0.48168  0.75000  1
 W  W1  1  0.55403  0.44597  0.75000  1
 W  W2  1  0.44597  0.55403  0.25000  1
