CIF file written using JARVIS-Tools package.
data_CePuCo4
_symmetry_space_group_name_H-M  'F-43m'
_cell_length_a       4.91344
_cell_length_b       4.91343
_cell_length_c       4.91343
_cell_angle_alpha    60
_cell_angle_beta     60
_cell_angle_gamma    59.9999

_symmetry_Int_Tables_number  216
_chemical_formula_structural  CePuCo4
_chemical_formula_sum  CePuCo4
_cell_volume  83.87652791710883
_cell_formula_units_Z  1
loop_
  _symmetry_equiv_pos_site_id
 _symmetry_equiv_pos_as_xyz
 1  'x, y, z'
loop_
 _atom_site_type_symbol
 _atom_site_label
 _atom_site_symmetry_multiplicity
 _atom_site_fract_x
 _atom_site_fract_y
 _atom_site_fract_z
 _atom_site_fract_occupancy
 Ce  Ce1  1  0.25000  0.25000  0.25000  1
 Co  Co1  1  0.62654  0.62654  0.12037  1
 Co  Co2  1  0.62654  0.12037  0.62654  1
 Co  Co3  1  0.12037  0.62654  0.62654  1
 Co  Co4  1  0.62654  0.62654  0.62654  1
 Pu  Pu1  1  0.00000  0.00000  0.00000  1
