CIF file written using JARVIS-Tools package.
data_Ca4ZnAg3
_symmetry_space_group_name_H-M  'Pmm2'
_cell_length_a       4.04597
_cell_length_b       4.59535
_cell_length_c       11.2909
_cell_angle_alpha    90
_cell_angle_beta     90
_cell_angle_gamma    90

_symmetry_Int_Tables_number  25
_chemical_formula_structural  Ca4ZnAg3
_chemical_formula_sum  Ca4ZnAg3
_cell_volume  209.92779160567133
_cell_formula_units_Z  1
loop_
  _symmetry_equiv_pos_site_id
 _symmetry_equiv_pos_as_xyz
 1  'x, y, z'
loop_
 _atom_site_type_symbol
 _atom_site_label
 _atom_site_symmetry_multiplicity
 _atom_site_fract_x
 _atom_site_fract_y
 _atom_site_fract_z
 _atom_site_fract_occupancy
 Ag  Ag1  1  0.00000  0.50000  0.92212  1
 Ag  Ag2  1  0.00000  0.00000  0.07833  1
 Ag  Ag3  1  0.50000  0.00000  0.57147  1
 Ca  Ca1  1  0.50000  0.50000  0.14229  1
 Ca  Ca2  1  0.00000  0.50000  0.64248  1
 Ca  Ca3  1  0.00000  0.00000  0.35800  1
 Ca  Ca4  1  0.50000  0.00000  0.85811  1
 Zn  Zn1  1  0.50000  0.50000  0.42719  1
