CIF file written using JARVIS-Tools package.
data_MgZn3O4
_symmetry_space_group_name_H-M  'Cm'
_cell_length_a       6.1817
_cell_length_b       6.1817
_cell_length_c       5.65267
_cell_angle_alpha    62.7984
_cell_angle_beta     62.7984
_cell_angle_gamma    30.7452

_symmetry_Int_Tables_number  8
_chemical_formula_structural  MgZn3O4
_chemical_formula_sum  MgZn3O4
_cell_volume  97.22933432695166
_cell_formula_units_Z  1
loop_
  _symmetry_equiv_pos_site_id
 _symmetry_equiv_pos_as_xyz
 1  'x, y, z'
loop_
 _atom_site_type_symbol
 _atom_site_label
 _atom_site_symmetry_multiplicity
 _atom_site_fract_x
 _atom_site_fract_y
 _atom_site_fract_z
 _atom_site_fract_occupancy
 Mg  Mg1  1  0.74852  0.74852  0.58277  1
 O  O1  1  0.93745  0.93745  0.39529  1
 O  O2  1  0.44144  0.44144  0.89176  1
 O  O3  1  0.19158  0.19158  0.47795  1
 O  O4  1  0.69128  0.69128  0.97324  1
 Zn  Zn1  1  0.24994  0.24994  0.08474  1
 Zn  Zn2  1  0.50084  0.50084  0.16868  1
 Zn  Zn3  1  0.00098  0.00098  0.66357  1
