CIF file written using JARVIS-Tools package.
data_Li2VGa3O8
_symmetry_space_group_name_H-M  'P1'
_cell_length_a       5.15376
_cell_length_b       5.47186
_cell_length_c       6.51348
_cell_angle_alpha    89.8042
_cell_angle_beta     89.5011
_cell_angle_gamma    89.1652

_symmetry_Int_Tables_number  1
_chemical_formula_structural  Li2VGa3O8
_chemical_formula_sum  Li2VGa3O8
_cell_volume  183.65685666289406
_cell_formula_units_Z  1
loop_
  _symmetry_equiv_pos_site_id
 _symmetry_equiv_pos_as_xyz
 1  'x, y, z'
loop_
 _atom_site_type_symbol
 _atom_site_label
 _atom_site_symmetry_multiplicity
 _atom_site_fract_x
 _atom_site_fract_y
 _atom_site_fract_z
 _atom_site_fract_occupancy
 Ga  Ga1  1  0.99195  0.41536  0.62709  1
 Ga  Ga2  1  0.47840  0.57796  0.39097  1
 Ga  Ga3  1  0.01717  0.90853  0.85824  1
 Li  Li1  1  0.49714  0.09917  0.62403  1
 Li  Li2  1  0.00212  0.43043  0.12729  1
 O  O1  1  0.16880  0.08210  0.08769  1
 O  O2  1  0.12753  0.09813  0.64766  1
 O  O3  1  0.61049  0.37778  0.16442  1
 O  O4  1  0.63307  0.41917  0.60334  1
 O  O5  1  0.12788  0.54366  0.38390  1
 O  O6  1  0.07155  0.58327  0.86940  1
 O  O7  1  0.57514  0.90554  0.34025  1
 O  O8  1  0.65068  0.97432  0.90211  1
 V  V1  1  0.50112  0.08468  0.12352  1
