CIF file written using JARVIS-Tools package.
data_Ca5Zn3
_symmetry_space_group_name_H-M  'I4/mcm'
_cell_length_a       7.78675
_cell_length_b       7.78674
_cell_length_c       9.39193
_cell_angle_alpha    114.491
_cell_angle_beta     114.491
_cell_angle_gamma    90

_symmetry_Int_Tables_number  140
_chemical_formula_structural  Ca5Zn3
_chemical_formula_sum  Ca0Zn6
_cell_volume  461.33846690342295
_cell_formula_units_Z  2
loop_
  _symmetry_equiv_pos_site_id
 _symmetry_equiv_pos_as_xyz
 1  'x, y, z'
loop_
 _atom_site_type_symbol
 _atom_site_label
 _atom_site_symmetry_multiplicity
 _atom_site_fract_x
 _atom_site_fract_y
 _atom_site_fract_z
 _atom_site_fract_occupancy
 Ca  Ca1  1  0.00000  0.00000  0.00000  1
 Ca  Ca2  1  0.50000  0.50000  -0.00000  1
 Ca  Ca3  1  0.31815  0.81815  0.29534  1
 Ca  Ca4  1  0.47719  0.31815  0.29534  1
 Ca  Ca5  1  0.81815  0.97719  0.29534  1
 Ca  Ca6  1  0.52281  0.68185  0.70466  1
 Ca  Ca7  1  0.18185  0.02281  0.70466  1
 Ca  Ca8  1  0.02281  0.52281  0.70466  1
 Ca  Ca9  1  0.68185  0.18185  0.70466  1
 Ca  Ca10  1  0.97719  0.47719  0.29534  1
 Zn  Zn1  1  0.25000  0.25000  0.50000  1
 Zn  Zn2  1  0.75000  0.75000  0.50000  1
 Zn  Zn3  1  0.38145  0.88145  0.00000  1
 Zn  Zn4  1  0.11855  0.38145  -0.00000  1
 Zn  Zn5  1  0.88145  0.61855  0.00000  1
 Zn  Zn6  1  0.61855  0.11855  -0.00000  1
