CIF file written using JARVIS-Tools package.
data_CaAl2B2O7
_symmetry_space_group_name_H-M  'R-3c'
_cell_length_a       15.8783
_cell_length_b       15.8783
_cell_length_c       15.8783
_cell_angle_alpha    17.5908
_cell_angle_beta     17.5908
_cell_angle_gamma    17.5908

_symmetry_Int_Tables_number  167
_chemical_formula_structural  CaAl2B2O7
_chemical_formula_sum  Ca2Al4B4O4
_cell_volume  319.140839105742
_cell_formula_units_Z  2
loop_
  _symmetry_equiv_pos_site_id
 _symmetry_equiv_pos_as_xyz
 1  'x, y, z'
loop_
 _atom_site_type_symbol
 _atom_site_label
 _atom_site_symmetry_multiplicity
 _atom_site_fract_x
 _atom_site_fract_y
 _atom_site_fract_z
 _atom_site_fract_occupancy
 Al  Al1  1  0.28610  0.28610  0.28610  1
 Al  Al2  1  0.78610  0.78610  0.78610  1
 Al  Al3  1  0.71390  0.71390  0.71390  1
 Al  Al4  1  0.21390  0.21390  0.21390  1
 B  B1  1  0.63447  0.63447  0.63447  1
 B  B2  1  0.86553  0.86553  0.86553  1
 B  B3  1  0.36553  0.36553  0.36553  1
 B  B4  1  0.13447  0.13447  0.13447  1
 Ca  Ca1  1  0.00000  0.00000  0.00000  1
 Ca  Ca2  1  0.50000  0.50000  0.50000  1
 O  O1  1  0.87206  0.43647  0.09775  1
 O  O2  1  0.40225  0.06353  0.62794  1
 O  O3  1  0.62794  0.40225  0.06353  1
 O  O4  1  0.56353  0.90225  0.12794  1
 O  O5  1  0.12794  0.56353  0.90225  1
 O  O6  1  0.37206  0.59775  0.93647  1
 O  O7  1  0.43647  0.09775  0.87206  1
 O  O8  1  0.06353  0.62794  0.40225  1
 O  O9  1  0.59775  0.93647  0.37206  1
 O  O10  1  0.90225  0.12794  0.56353  1
 O  O11  1  0.09775  0.87206  0.43647  1
 O  O12  1  0.25000  0.25000  0.25000  1
 O  O13  1  0.93647  0.37206  0.59775  1
 O  O14  1  0.75000  0.75000  0.75000  1
