CIF file written using JARVIS-Tools package.
data_Rb3RuF6
_symmetry_space_group_name_H-M  'R-3m'
_cell_length_a       6.91861
_cell_length_b       6.92018
_cell_length_c       6.92093
_cell_angle_alpha    105.898
_cell_angle_beta     106.037
_cell_angle_gamma    105.894

_symmetry_Int_Tables_number  166
_chemical_formula_structural  Rb3RuF6
_chemical_formula_sum  Rb3RuF6
_cell_volume  283.53855478833896
_cell_formula_units_Z  1
loop_
  _symmetry_equiv_pos_site_id
 _symmetry_equiv_pos_as_xyz
 1  'x, y, z'
loop_
 _atom_site_type_symbol
 _atom_site_label
 _atom_site_symmetry_multiplicity
 _atom_site_fract_x
 _atom_site_fract_y
 _atom_site_fract_z
 _atom_site_fract_occupancy
 F  F1  1  0.04089  0.77361  0.77362  1
 F  F2  1  0.95911  0.22639  0.22638  1
 F  F3  1  0.77363  0.77362  0.04094  1
 F  F4  1  0.22637  0.22638  0.95906  1
 F  F5  1  0.77333  0.04112  0.77335  1
 F  F6  1  0.22667  0.95888  0.22665  1
 Rb  Rb1  1  -0.00000  0.50000  0.00000  1
 Rb  Rb2  1  0.50000  -0.00000  -0.00000  1
 Rb  Rb3  1  0.00000  -0.00000  0.50000  1
 Ru  Ru1  1  0.00000  0.00000  0.00000  1
