CIF file written using JARVIS-Tools package.
data_SrAl2Cl8
_symmetry_space_group_name_H-M  'P2/c'
_cell_length_a       6.66486
_cell_length_b       6.981
_cell_length_c       12.9249
_cell_angle_alpha    90
_cell_angle_beta     91.7302
_cell_angle_gamma    90

_symmetry_Int_Tables_number  13
_chemical_formula_structural  SrAl2Cl8
_chemical_formula_sum  Sr2Al4Cl6
_cell_volume  601.0874601405201
_cell_formula_units_Z  2
loop_
  _symmetry_equiv_pos_site_id
 _symmetry_equiv_pos_as_xyz
 1  'x, y, z'
loop_
 _atom_site_type_symbol
 _atom_site_label
 _atom_site_symmetry_multiplicity
 _atom_site_fract_x
 _atom_site_fract_y
 _atom_site_fract_z
 _atom_site_fract_occupancy
 Al  Al1  1  0.68310  0.25656  0.41349  1
 Al  Al2  1  0.68310  0.74344  0.91349  1
 Al  Al3  1  0.31690  0.74344  0.58651  1
 Al  Al4  1  0.31690  0.25656  0.08651  1
 Cl  Cl1  1  0.23085  0.50632  0.17329  1
 Cl  Cl2  1  0.76915  0.50632  0.32671  1
 Cl  Cl3  1  0.73571  0.32932  0.57454  1
 Cl  Cl4  1  0.37511  0.82904  0.88272  1
 Cl  Cl5  1  0.62489  0.17096  0.11728  1
 Cl  Cl6  1  0.14605  0.99151  0.63257  1
 Cl  Cl7  1  0.26429  0.32932  0.92546  1
 Cl  Cl8  1  0.23085  0.49368  0.67329  1
 Cl  Cl9  1  0.85395  0.00849  0.36743  1
 Cl  Cl10  1  0.37511  0.17096  0.38272  1
 Cl  Cl11  1  0.26429  0.67068  0.42546  1
 Cl  Cl12  1  0.62489  0.82904  0.61728  1
 Cl  Cl13  1  0.85395  0.99151  0.86743  1
 Cl  Cl14  1  0.73571  0.67068  0.07454  1
 Cl  Cl15  1  0.14605  0.00849  0.13257  1
 Cl  Cl16  1  0.76915  0.49368  0.82671  1
 Sr  Sr1  1  0.50000  0.82897  0.25000  1
 Sr  Sr2  1  0.50000  0.17103  0.75000  1
