CIF file written using JARVIS-Tools package.
data_FeCo3P4O16
_symmetry_space_group_name_H-M  'Pm'
_cell_length_a       4.66366
_cell_length_b       5.60983
_cell_length_c       9.68345
_cell_angle_alpha    90
_cell_angle_beta     88.6435
_cell_angle_gamma    90

_symmetry_Int_Tables_number  6
_chemical_formula_structural  FeCo3P4O16
_chemical_formula_sum  FeCo3P4O6
_cell_volume  253.2705661549982
_cell_formula_units_Z  1
loop_
  _symmetry_equiv_pos_site_id
 _symmetry_equiv_pos_as_xyz
 1  'x, y, z'
loop_
 _atom_site_type_symbol
 _atom_site_label
 _atom_site_symmetry_multiplicity
 _atom_site_fract_x
 _atom_site_fract_y
 _atom_site_fract_z
 _atom_site_fract_occupancy
 Co  Co1  1  0.94954  0.50000  0.73687  1
 Co  Co2  1  0.54666  0.50000  0.22723  1
 Co  Co3  1  0.45145  0.00000  0.77228  1
 Fe  Fe1  1  0.05260  0.00000  0.26567  1
 O  O1  1  0.84220  0.00000  0.44080  1
 O  O2  1  0.72261  0.21027  0.67140  1
 O  O3  1  0.72261  0.78973  0.67140  1
 O  O4  1  0.27469  0.29077  0.32789  1
 O  O5  1  0.71187  0.50000  0.89800  1
 O  O6  1  0.75833  0.21592  0.15827  1
 O  O7  1  0.78529  0.50000  0.38297  1
 O  O8  1  0.69494  0.00000  0.92640  1
 O  O9  1  0.30485  0.50000  0.07205  1
 O  O10  1  0.24253  0.28319  0.84052  1
 O  O11  1  0.75833  0.78408  0.15827  1
 O  O12  1  0.29002  0.00000  0.10291  1
 O  O13  1  0.21357  0.00000  0.61733  1
 O  O14  1  0.27469  0.70923  0.32789  1
 O  O15  1  0.24253  0.71681  0.84052  1
 O  O16  1  0.16150  0.50000  0.56033  1
 P  P1  1  0.10666  0.50000  0.40672  1
 P  P2  1  0.38786  0.50000  0.91831  1
 P  P3  1  0.61334  0.00000  0.07996  1
 P  P4  1  0.89132  0.00000  0.59599  1
