CIF file written using JARVIS-Tools package.
data_LiGe
_symmetry_space_group_name_H-M  'I4_1/a'
_cell_length_a       5.71372
_cell_length_b       7.53972
_cell_length_c       7.53972
_cell_angle_alpha    81.7455
_cell_angle_beta     67.7339
_cell_angle_gamma    67.734

_symmetry_Int_Tables_number  88
_chemical_formula_structural  LiGe
_chemical_formula_sum  Li8Ge8
_cell_volume  278.176366026431
_cell_formula_units_Z  8
loop_
  _symmetry_equiv_pos_site_id
 _symmetry_equiv_pos_as_xyz
 1  'x, y, z'
loop_
 _atom_site_type_symbol
 _atom_site_label
 _atom_site_symmetry_multiplicity
 _atom_site_fract_x
 _atom_site_fract_y
 _atom_site_fract_z
 _atom_site_fract_occupancy
 Ge  Ge1  1  0.06149  0.15918  0.44768  1
 Ge  Ge2  1  0.50917  0.05232  0.15918  1
 Ge  Ge3  1  0.72067  0.44768  0.34082  1
 Ge  Ge4  1  0.66835  0.34082  0.05232  1
 Ge  Ge5  1  0.93851  0.84082  0.55232  1
 Ge  Ge6  1  0.49083  0.94768  0.84082  1
 Ge  Ge7  1  0.27933  0.55232  0.65918  1
 Ge  Ge8  1  0.33165  0.65918  0.94768  1
 Li  Li1  1  0.46580  0.19385  0.53587  1
 Li  Li2  1  0.00167  0.96413  0.19385  1
 Li  Li3  1  0.15965  0.53587  0.30615  1
 Li  Li4  1  0.19552  0.30615  0.96413  1
 Li  Li5  1  0.53420  0.80615  0.46413  1
 Li  Li6  1  -0.00167  0.03587  0.80615  1
 Li  Li7  1  0.84035  0.46413  0.69385  1
 Li  Li8  1  0.80448  0.69385  0.03587  1
