CIF file written using JARVIS-Tools package.
data_Cd3PI3
_symmetry_space_group_name_H-M  'Pm'
_cell_length_a       4.4823
_cell_length_b       7.36997
_cell_length_c       7.71208
_cell_angle_alpha    89.372
_cell_angle_beta     90
_cell_angle_gamma    90

_symmetry_Int_Tables_number  6
_chemical_formula_structural  Cd3PI3
_chemical_formula_sum  Cd3PI3
_cell_volume  254.7487975705014
_cell_formula_units_Z  1
loop_
  _symmetry_equiv_pos_site_id
 _symmetry_equiv_pos_as_xyz
 1  'x, y, z'
loop_
 _atom_site_type_symbol
 _atom_site_label
 _atom_site_symmetry_multiplicity
 _atom_site_fract_x
 _atom_site_fract_y
 _atom_site_fract_z
 _atom_site_fract_occupancy
 Cd  Cd1  1  0.00000  0.46724  0.69571  1
 Cd  Cd2  1  0.50000  0.50308  0.11420  1
 Cd  Cd3  1  0.50000  0.04015  0.86032  1
 I  I1  1  0.00000  0.87559  0.66229  1
 I  I2  1  0.50000  0.87700  0.19664  1
 I  I3  1  0.00000  0.35149  0.32240  1
 P  P1  1  0.50000  0.37746  0.81511  1
