CIF file written using JARVIS-Tools package.
data_CeCoGe2Ru
_symmetry_space_group_name_H-M  'I-4m2'
_cell_length_a       5.87893
_cell_length_b       5.87893
_cell_length_c       5.87893
_cell_angle_alpha    138.808
_cell_angle_beta     138.808
_cell_angle_gamma    59.6676

_symmetry_Int_Tables_number  119
_chemical_formula_structural  CeCoGe2Ru
_chemical_formula_sum  CeCoGe2Ru
_cell_volume  87.24515645837235
_cell_formula_units_Z  1
loop_
  _symmetry_equiv_pos_site_id
 _symmetry_equiv_pos_as_xyz
 1  'x, y, z'
loop_
 _atom_site_type_symbol
 _atom_site_label
 _atom_site_symmetry_multiplicity
 _atom_site_fract_x
 _atom_site_fract_y
 _atom_site_fract_z
 _atom_site_fract_occupancy
 Ce  Ce1  1  0.00000  0.00000  0.00000  1
 Co  Co1  1  0.75000  0.25000  0.50000  1
 Ge  Ge1  1  0.62929  0.62929  -0.00000  1
 Ge  Ge2  1  0.37071  0.37071  -0.00000  1
 Ru  Ru1  1  0.25000  0.75000  0.50000  1
