CIF file written using JARVIS-Tools package.
data_LaPrMn4Si4
_symmetry_space_group_name_H-M  'P4/mmm'
_cell_length_a       3.99751
_cell_length_b       3.99751
_cell_length_c       10.5808
_cell_angle_alpha    90
_cell_angle_beta     90
_cell_angle_gamma    90

_symmetry_Int_Tables_number  123
_chemical_formula_structural  LaPrMn4Si4
_chemical_formula_sum  LaPrMn4Si4
_cell_volume  169.0814320623193
_cell_formula_units_Z  1
loop_
  _symmetry_equiv_pos_site_id
 _symmetry_equiv_pos_as_xyz
 1  'x, y, z'
loop_
 _atom_site_type_symbol
 _atom_site_label
 _atom_site_symmetry_multiplicity
 _atom_site_fract_x
 _atom_site_fract_y
 _atom_site_fract_z
 _atom_site_fract_occupancy
 La  La1  1  0.00000  0.00000  0.00000  1
 Mn  Mn1  1  0.00000  0.50000  0.25204  1
 Mn  Mn2  1  0.50000  0.00000  0.74796  1
 Mn  Mn3  1  0.50000  0.00000  0.25204  1
 Mn  Mn4  1  0.00000  0.50000  0.74796  1
 Pr  Pr1  1  0.50000  0.50000  0.50000  1
 Si  Si1  1  0.50000  0.50000  0.13136  1
 Si  Si2  1  0.00000  0.00000  0.62685  1
 Si  Si3  1  0.00000  0.00000  0.37315  1
 Si  Si4  1  0.50000  0.50000  0.86864  1
