CIF file written using JARVIS-Tools package.
data_K3V3O8
_symmetry_space_group_name_H-M  'P-3m1'
_cell_length_a       5.65039
_cell_length_b       5.65039
_cell_length_c       7.38565
_cell_angle_alpha    90
_cell_angle_beta     90
_cell_angle_gamma    120

_symmetry_Int_Tables_number  164
_chemical_formula_structural  K3V3O8
_chemical_formula_sum  K3V3O8
_cell_volume  204.20933289038265
_cell_formula_units_Z  1
loop_
  _symmetry_equiv_pos_site_id
 _symmetry_equiv_pos_as_xyz
 1  'x, y, z'
loop_
 _atom_site_type_symbol
 _atom_site_label
 _atom_site_symmetry_multiplicity
 _atom_site_fract_x
 _atom_site_fract_y
 _atom_site_fract_z
 _atom_site_fract_occupancy
 K  K1  1  0.00000  0.00000  0.00000  1
 K  K2  1  0.33333  0.66667  0.68259  1
 K  K3  1  0.66667  0.33333  0.31741  1
 O  O1  1  0.83486  0.16514  0.65766  1
 O  O2  1  0.33029  0.16514  0.65766  1
 O  O3  1  0.83486  0.66971  0.65766  1
 O  O4  1  0.16514  0.33029  0.34234  1
 O  O5  1  0.66971  0.83486  0.34234  1
 O  O6  1  0.16514  0.83486  0.34234  1
 O  O7  1  0.33333  0.66667  0.02962  1
 O  O8  1  0.66667  0.33333  0.97038  1
 V  V1  1  0.00000  0.00000  0.50000  1
 V  V2  1  0.33333  0.66667  0.25654  1
 V  V3  1  0.66667  0.33333  0.74346  1
