CIF file written using JARVIS-Tools package.
data_Sr6Cu3N5
_symmetry_space_group_name_H-M  'P4_2mc'
_cell_length_a       8.66308
_cell_length_b       8.66308
_cell_length_c       7.32618
_cell_angle_alpha    90
_cell_angle_beta     90
_cell_angle_gamma    90

_symmetry_Int_Tables_number  105
_chemical_formula_structural  Sr6Cu3N5
_chemical_formula_sum  Sr2Cu6N0
_cell_volume  549.8218429811253
_cell_formula_units_Z  2
loop_
  _symmetry_equiv_pos_site_id
 _symmetry_equiv_pos_as_xyz
 1  'x, y, z'
loop_
 _atom_site_type_symbol
 _atom_site_label
 _atom_site_symmetry_multiplicity
 _atom_site_fract_x
 _atom_site_fract_y
 _atom_site_fract_z
 _atom_site_fract_occupancy
 Cu  Cu1  1  0.64117  0.00000  0.93337  1
 Cu  Cu2  1  0.00000  0.35883  0.43337  1
 Cu  Cu3  1  0.50000  0.50000  0.97294  1
 Cu  Cu4  1  0.50000  0.50000  0.47294  1
 Cu  Cu5  1  0.00000  0.64117  0.43337  1
 Cu  Cu6  1  0.35883  0.00000  0.93337  1
 N  N1  1  0.50000  0.71351  0.48568  1
 N  N2  1  0.00000  0.21936  0.23761  1
 N  N3  1  0.21936  0.00000  0.73761  1
 N  N4  1  0.78064  0.00000  0.73761  1
 N  N5  1  0.00000  0.78064  0.23761  1
 N  N6  1  0.50000  0.00000  0.13367  1
 N  N7  1  0.00000  0.50000  0.63367  1
 N  N8  1  0.28649  0.50000  0.98568  1
 N  N9  1  0.50000  0.28649  0.48568  1
 N  N10  1  0.71351  0.50000  0.98568  1
 Sr  Sr1  1  0.30341  0.26551  0.21160  1
 Sr  Sr2  1  0.26551  0.69659  0.71160  1
 Sr  Sr3  1  0.73449  0.30341  0.71160  1
 Sr  Sr4  1  0.69659  0.73449  0.21160  1
 Sr  Sr5  1  0.30341  0.73449  0.21160  1
 Sr  Sr6  1  0.69659  0.26551  0.21160  1
 Sr  Sr7  1  0.73449  0.69659  0.71160  1
 Sr  Sr8  1  0.26551  0.30341  0.71160  1
 Sr  Sr9  1  0.50000  0.00000  0.52401  1
 Sr  Sr10  1  0.00000  0.50000  0.02401  1
 Sr  Sr11  1  0.00000  0.00000  -0.00006  1
 Sr  Sr12  1  0.00000  0.00000  0.49994  1
