CIF file written using JARVIS-Tools package.
data_Ba2Ga7Ag
_symmetry_space_group_name_H-M  'P-4m2'
_cell_length_a       4.62078
_cell_length_b       4.62078
_cell_length_c       10.9166
_cell_angle_alpha    90
_cell_angle_beta     90
_cell_angle_gamma    90

_symmetry_Int_Tables_number  115
_chemical_formula_structural  Ba2Ga7Ag
_chemical_formula_sum  Ba2Ga7Ag
_cell_volume  233.08725096806046
_cell_formula_units_Z  1
loop_
  _symmetry_equiv_pos_site_id
 _symmetry_equiv_pos_as_xyz
 1  'x, y, z'
loop_
 _atom_site_type_symbol
 _atom_site_label
 _atom_site_symmetry_multiplicity
 _atom_site_fract_x
 _atom_site_fract_y
 _atom_site_fract_z
 _atom_site_fract_occupancy
 Ag  Ag1  1  0.50000  0.50000  0.00000  1
 Ba  Ba1  1  0.50000  0.00000  0.74734  1
 Ba  Ba2  1  0.00000  0.50000  0.25266  1
 Ga  Ga1  1  0.00000  0.50000  0.87205  1
 Ga  Ga2  1  0.50000  0.00000  0.37123  1
 Ga  Ga3  1  0.50000  0.00000  0.12795  1
 Ga  Ga4  1  0.00000  0.50000  0.62877  1
 Ga  Ga5  1  0.00000  0.00000  0.50000  1
 Ga  Ga6  1  0.00000  0.00000  0.00000  1
 Ga  Ga7  1  0.50000  0.50000  0.50000  1
