CIF file written using JARVIS-Tools package.
data_Ce2Al3Fe
_symmetry_space_group_name_H-M  'R-3m'
_cell_length_a       5.47464
_cell_length_b       5.47464
_cell_length_c       5.47465
_cell_angle_alpha    59.229
_cell_angle_beta     59.229
_cell_angle_gamma    59.229

_symmetry_Int_Tables_number  166
_chemical_formula_structural  Ce2Al3Fe
_chemical_formula_sum  Ce2Al3Fe
_cell_volume  113.98734388849988
_cell_formula_units_Z  1
loop_
  _symmetry_equiv_pos_site_id
 _symmetry_equiv_pos_as_xyz
 1  'x, y, z'
loop_
 _atom_site_type_symbol
 _atom_site_label
 _atom_site_symmetry_multiplicity
 _atom_site_fract_x
 _atom_site_fract_y
 _atom_site_fract_z
 _atom_site_fract_occupancy
 Al  Al1  1  -0.00000  0.50000  -0.00000  1
 Al  Al2  1  0.50000  -0.00000  -0.00000  1
 Al  Al3  1  -0.00000  -0.00000  0.50000  1
 Ce  Ce1  1  0.62988  0.62988  0.62988  1
 Ce  Ce2  1  0.37012  0.37012  0.37012  1
 Fe  Fe1  1  0.00000  0.00000  0.00000  1
