CIF file written using JARVIS-Tools package.
data_ScGa6Fe6
_symmetry_space_group_name_H-M  'Immm'
_cell_length_a       4.98474
_cell_length_b       6.4893
_cell_length_c       6.48929
_cell_angle_alpha    80.27
_cell_angle_beta     67.4138
_cell_angle_gamma    67.4138

_symmetry_Int_Tables_number  71
_chemical_formula_structural  ScGa6Fe6
_chemical_formula_sum  ScGa6Fe6
_cell_volume  178.89045647310712
_cell_formula_units_Z  1
loop_
  _symmetry_equiv_pos_site_id
 _symmetry_equiv_pos_as_xyz
 1  'x, y, z'
loop_
 _atom_site_type_symbol
 _atom_site_label
 _atom_site_symmetry_multiplicity
 _atom_site_fract_x
 _atom_site_fract_y
 _atom_site_fract_z
 _atom_site_fract_occupancy
 Fe  Fe1  1  0.50000  0.75511  0.24489  1
 Fe  Fe2  1  0.50000  -0.00000  0.50000  1
 Fe  Fe3  1  0.00000  -0.00000  0.50000  1
 Fe  Fe4  1  0.50000  0.50000  0.00000  1
 Fe  Fe5  1  0.00000  0.50000  0.00000  1
 Fe  Fe6  1  0.50000  0.24489  0.75511  1
 Ga  Ga1  1  -0.00000  0.32552  0.67448  1
 Ga  Ga2  1  0.66050  0.33950  0.33950  1
 Ga  Ga3  1  0.33950  0.66050  0.66050  1
 Ga  Ga4  1  0.67441  0.82559  0.82559  1
 Ga  Ga5  1  0.32559  0.17441  0.17441  1
 Ga  Ga6  1  0.00000  0.67448  0.32552  1
 Sc  Sc1  1  0.00000  0.00000  0.00000  1
