CIF file written using JARVIS-Tools package.
data_CrFeSi2
_symmetry_space_group_name_H-M  'P2_1'
_cell_length_a       4.50494
_cell_length_b       4.5491
_cell_length_c       4.54633
_cell_angle_alpha    89.2206
_cell_angle_beta     90
_cell_angle_gamma    90

_symmetry_Int_Tables_number  4
_chemical_formula_structural  CrFeSi2
_chemical_formula_sum  Cr2Fe2Si4
_cell_volume  93.16105594204215
_cell_formula_units_Z  2
loop_
  _symmetry_equiv_pos_site_id
 _symmetry_equiv_pos_as_xyz
 1  'x, y, z'
loop_
 _atom_site_type_symbol
 _atom_site_label
 _atom_site_symmetry_multiplicity
 _atom_site_fract_x
 _atom_site_fract_y
 _atom_site_fract_z
 _atom_site_fract_occupancy
 Cr  Cr1  1  0.63572  0.62837  0.89416  1
 Cr  Cr2  1  0.13572  0.37163  0.10584  1
 Fe  Fe1  1  0.36333  0.86037  0.38494  1
 Fe  Fe2  1  0.86333  0.13963  0.61506  1
 Si  Si1  1  0.34557  0.33574  0.58872  1
 Si  Si2  1  0.84557  0.66426  0.41128  1
 Si  Si3  1  0.65539  0.14513  0.09784  1
 Si  Si4  1  0.15539  0.85487  0.90216  1
