CIF file written using JARVIS-Tools package.
data_DyUTe4
_symmetry_space_group_name_H-M  'Imm2'
_cell_length_a       7.98162
_cell_length_b       7.98162
_cell_length_c       7.98163
_cell_angle_alpha    149.578
_cell_angle_beta     134.496
_cell_angle_gamma    55.7241

_symmetry_Int_Tables_number  44
_chemical_formula_structural  DyUTe4
_chemical_formula_sum  DyUTe4
_cell_volume  182.45811938603063
_cell_formula_units_Z  1
loop_
  _symmetry_equiv_pos_site_id
 _symmetry_equiv_pos_as_xyz
 1  'x, y, z'
loop_
 _atom_site_type_symbol
 _atom_site_label
 _atom_site_symmetry_multiplicity
 _atom_site_fract_x
 _atom_site_fract_y
 _atom_site_fract_z
 _atom_site_fract_occupancy
 Dy  Dy1  1  0.13823  0.13823  -0.00000  1
 Te  Te1  1  0.70477  0.20477  0.50000  1
 Te  Te2  1  0.29661  0.79661  0.50000  1
 Te  Te3  1  0.74957  0.49832  0.25126  1
 Te  Te4  1  0.24706  0.49832  0.74874  1
 U  U1  1  0.86376  0.86376  -0.00000  1
