CIF file written using JARVIS-Tools package.
data_LiVBO4
_symmetry_space_group_name_H-M  'I-4'
_cell_length_a       4.81887
_cell_length_b       4.81887
_cell_length_c       4.81887
_cell_angle_alpha    123.707
_cell_angle_beta     123.707
_cell_angle_gamma    83.6909

_symmetry_Int_Tables_number  82
_chemical_formula_structural  LiVBO4
_chemical_formula_sum  LiVBO4
_cell_volume  74.2000624705387
_cell_formula_units_Z  1
loop_
  _symmetry_equiv_pos_site_id
 _symmetry_equiv_pos_as_xyz
 1  'x, y, z'
loop_
 _atom_site_type_symbol
 _atom_site_label
 _atom_site_symmetry_multiplicity
 _atom_site_fract_x
 _atom_site_fract_y
 _atom_site_fract_z
 _atom_site_fract_occupancy
 B  B1  1  0.25000  0.75000  0.50000  1
 Li  Li1  1  0.50000  0.50000  0.00000  1
 O  O1  1  0.15920  0.69712  0.12221  1
 O  O2  1  0.96300  0.84080  0.53792  1
 O  O3  1  0.57491  0.03700  0.87779  1
 O  O4  1  0.30288  0.42509  0.46208  1
 V  V1  1  0.00000  0.00000  0.00000  1
