CIF file written using JARVIS-Tools package.
data_Ca2SnS4
_symmetry_space_group_name_H-M  'C222_1'
_cell_length_a       7.04442
_cell_length_b       7.11158
_cell_length_c       7.73026
_cell_angle_alpha    90
_cell_angle_beta     117.106
_cell_angle_gamma    90

_symmetry_Int_Tables_number  20
_chemical_formula_structural  Ca2SnS4
_chemical_formula_sum  Ca4Sn2S8
_cell_volume  344.7275203308567
_cell_formula_units_Z  2
loop_
  _symmetry_equiv_pos_site_id
 _symmetry_equiv_pos_as_xyz
 1  'x, y, z'
loop_
 _atom_site_type_symbol
 _atom_site_label
 _atom_site_symmetry_multiplicity
 _atom_site_fract_x
 _atom_site_fract_y
 _atom_site_fract_z
 _atom_site_fract_occupancy
 Ca  Ca1  1  0.05191  0.52277  0.29066  1
 Ca  Ca2  1  0.73875  0.97723  0.29066  1
 Ca  Ca3  1  0.76125  0.47723  0.70934  1
 Ca  Ca4  1  0.44809  0.02277  0.70934  1
 S  S1  1  0.17275  0.75000  0.84550  1
 S  S2  1  0.32725  0.25000  0.15450  1
 S  S3  1  0.77730  0.25000  0.05460  1
 S  S4  1  0.72270  0.75000  0.94540  1
 S  S5  1  0.33434  0.39530  0.65101  1
 S  S6  1  0.81667  0.10470  0.65101  1
 S  S7  1  0.68333  0.60470  0.34899  1
 S  S8  1  0.16566  0.89530  0.34899  1
 Sn  Sn1  1  0.46012  0.50000  0.00000  1
 Sn  Sn2  1  0.03988  0.00000  -0.00000  1
