CIF file written using JARVIS-Tools package.
data_CaTlF3
_symmetry_space_group_name_H-M  'R3c'
_cell_length_a       6.27837
_cell_length_b       6.27837
_cell_length_c       6.27837
_cell_angle_alpha    60.5173
_cell_angle_beta     60.5172
_cell_angle_gamma    60.5173

_symmetry_Int_Tables_number  161
_chemical_formula_structural  CaTlF3
_chemical_formula_sum  Ca2Tl2F6
_cell_volume  177.04082440221234
_cell_formula_units_Z  2
loop_
  _symmetry_equiv_pos_site_id
 _symmetry_equiv_pos_as_xyz
 1  'x, y, z'
loop_
 _atom_site_type_symbol
 _atom_site_label
 _atom_site_symmetry_multiplicity
 _atom_site_fract_x
 _atom_site_fract_y
 _atom_site_fract_z
 _atom_site_fract_occupancy
 Ca  Ca1  1  0.00578  0.00578  0.00578  1
 Ca  Ca2  1  0.50578  0.50578  0.50578  1
 F  F1  1  0.25503  0.81059  0.70085  1
 F  F2  1  0.81059  0.70085  0.25503  1
 F  F3  1  0.70085  0.25503  0.81059  1
 F  F4  1  0.20085  0.31059  0.75503  1
 F  F5  1  0.75503  0.20085  0.31059  1
 F  F6  1  0.31059  0.75503  0.20085  1
 Tl  Tl1  1  0.25624  0.25624  0.25624  1
 Tl  Tl2  1  0.75624  0.75624  0.75624  1
