CIF file written using JARVIS-Tools package.
data_AlI3O9
_symmetry_space_group_name_H-M  'P6_3'
_cell_length_a       9.02104
_cell_length_b       9.02104
_cell_length_c       5.19021
_cell_angle_alpha    90
_cell_angle_beta     90
_cell_angle_gamma    120

_symmetry_Int_Tables_number  173
_chemical_formula_structural  AlI3O9
_chemical_formula_sum  Al2I6O8
_cell_volume  365.7872142681312
_cell_formula_units_Z  2
loop_
  _symmetry_equiv_pos_site_id
 _symmetry_equiv_pos_as_xyz
 1  'x, y, z'
loop_
 _atom_site_type_symbol
 _atom_site_label
 _atom_site_symmetry_multiplicity
 _atom_site_fract_x
 _atom_site_fract_y
 _atom_site_fract_z
 _atom_site_fract_occupancy
 Al  Al1  1  0.33333  0.66667  0.08561  1
 Al  Al2  1  0.66667  0.33333  0.58561  1
 I  I1  1  0.33534  0.31234  0.21717  1
 I  I2  1  0.66466  0.68766  0.71717  1
 I  I3  1  0.02300  0.33534  0.71717  1
 I  I4  1  0.97700  0.66466  0.21717  1
 I  I5  1  0.31234  0.97700  0.71717  1
 I  I6  1  0.68766  0.02300  0.21717  1
 O  O1  1  0.13001  0.55236  0.87704  1
 O  O2  1  0.51929  0.80471  0.31102  1
 O  O3  1  0.28542  0.48071  0.31102  1
 O  O4  1  0.19529  0.71458  0.31102  1
 O  O5  1  0.86999  0.44764  0.37704  1
 O  O6  1  0.80471  0.28542  0.81102  1
 O  O7  1  0.57765  0.13001  0.37704  1
 O  O8  1  0.48071  0.19529  0.81102  1
 O  O9  1  0.55236  0.42235  0.37704  1
 O  O10  1  0.44764  0.57765  0.87704  1
 O  O11  1  0.83044  0.04648  0.47920  1
 O  O12  1  0.21603  0.16956  0.47920  1
 O  O13  1  0.42235  0.86999  0.87704  1
 O  O14  1  0.95352  0.78397  0.47920  1
 O  O15  1  0.71458  0.51929  0.81102  1
 O  O16  1  0.04648  0.21603  0.97920  1
 O  O17  1  0.16956  0.95352  0.97920  1
 O  O18  1  0.78397  0.83044  0.97920  1
