CIF file written using JARVIS-Tools package.
data_TeOF2
_symmetry_space_group_name_H-M  'P2_1'
_cell_length_a       5.33038
_cell_length_b       7.99391
_cell_length_c       5.66971
_cell_angle_alpha    90
_cell_angle_beta     98.4645
_cell_angle_gamma    90

_symmetry_Int_Tables_number  4
_chemical_formula_structural  TeOF2
_chemical_formula_sum  Te4O4F8
_cell_volume  238.958101647203
_cell_formula_units_Z  4
loop_
  _symmetry_equiv_pos_site_id
 _symmetry_equiv_pos_as_xyz
 1  'x, y, z'
loop_
 _atom_site_type_symbol
 _atom_site_label
 _atom_site_symmetry_multiplicity
 _atom_site_fract_x
 _atom_site_fract_y
 _atom_site_fract_z
 _atom_site_fract_occupancy
 F  F1  1  0.36202  0.32767  0.25465  1
 F  F2  1  0.63798  0.82767  0.74535  1
 F  F3  1  0.03099  0.06312  0.30604  1
 F  F4  1  0.22144  0.76417  0.43018  1
 F  F5  1  0.96901  0.56312  0.69396  1
 F  F6  1  0.80858  0.55875  0.16190  1
 F  F7  1  0.77856  0.26417  0.56982  1
 F  F8  1  0.19142  0.05875  0.83810  1
 O  O1  1  0.30244  0.61187  0.04654  1
 O  O2  1  0.62274  0.85662  0.25380  1
 O  O3  1  0.69756  0.11187  0.95346  1
 O  O4  1  0.37726  0.35662  0.74620  1
 Te  Te1  1  0.48040  0.13764  0.64504  1
 Te  Te2  1  0.88483  0.90866  0.05394  1
 Te  Te3  1  0.51960  0.63764  0.35496  1
 Te  Te4  1  0.11517  0.40866  0.94606  1
