CIF file written using JARVIS-Tools package.
data_ZrP2O7
_symmetry_space_group_name_H-M  'Pnnm'
_cell_length_a       5.47029
_cell_length_b       6.82475
_cell_length_c       8.52694
_cell_angle_alpha    90
_cell_angle_beta     90
_cell_angle_gamma    90

_symmetry_Int_Tables_number  58
_chemical_formula_structural  ZrP2O7
_chemical_formula_sum  Zr2P4O4
_cell_volume  318.33948176889976
_cell_formula_units_Z  2
loop_
  _symmetry_equiv_pos_site_id
 _symmetry_equiv_pos_as_xyz
 1  'x, y, z'
loop_
 _atom_site_type_symbol
 _atom_site_label
 _atom_site_symmetry_multiplicity
 _atom_site_fract_x
 _atom_site_fract_y
 _atom_site_fract_z
 _atom_site_fract_occupancy
 O  O1  1  0.76899  0.80215  0.56720  1
 O  O2  1  0.26899  0.69785  0.06720  1
 O  O3  1  0.50000  0.88109  0.27604  1
 O  O4  1  0.00000  0.38109  0.22396  1
 O  O5  1  0.73101  0.69785  0.06720  1
 O  O6  1  0.00000  0.61891  0.77604  1
 O  O7  1  0.23101  0.19785  0.43280  1
 O  O8  1  0.23101  0.80215  0.56720  1
 O  O9  1  0.50000  0.11891  0.72396  1
 O  O10  1  0.50000  0.00000  0.00000  1
 O  O11  1  0.26899  0.30215  0.93280  1
 O  O12  1  0.00000  0.50000  0.50000  1
 O  O13  1  0.76899  0.19785  0.43280  1
 O  O14  1  0.73101  0.30215  0.93280  1
 P  P1  1  0.00000  0.68901  0.60706  1
 P  P2  1  0.50000  0.18901  0.89294  1
 P  P3  1  0.50000  0.81099  0.10706  1
 P  P4  1  0.00000  0.31099  0.39294  1
 Zr  Zr1  1  0.50000  0.00000  0.50000  1
 Zr  Zr2  1  0.00000  0.50000  0.00000  1
