CIF file written using JARVIS-Tools package.
data_Mn5Al2V
_symmetry_space_group_name_H-M  'R-3m'
_cell_length_a       4.05499
_cell_length_b       4.05498
_cell_length_c       7.03148
_cell_angle_alpha    73.2474
_cell_angle_beta     106.753
_cell_angle_gamma    119.995

_symmetry_Int_Tables_number  166
_chemical_formula_structural  Mn5Al2V
_chemical_formula_sum  Mn5Al2V
_cell_volume  94.42357349024503
_cell_formula_units_Z  1
loop_
  _symmetry_equiv_pos_site_id
 _symmetry_equiv_pos_as_xyz
 1  'x, y, z'
loop_
 _atom_site_type_symbol
 _atom_site_label
 _atom_site_symmetry_multiplicity
 _atom_site_fract_x
 _atom_site_fract_y
 _atom_site_fract_z
 _atom_site_fract_occupancy
 Al  Al1  1  0.12486  0.87514  0.37449  1
 Al  Al2  1  0.62514  0.37486  0.87551  1
 Mn  Mn1  1  0.74908  0.25092  0.24720  1
 Mn  Mn2  1  0.25089  0.74911  0.75275  1
 Mn  Mn3  1  0.00092  0.99908  0.00280  1
 Mn  Mn4  1  0.49911  0.50089  0.49725  1
 Mn  Mn5  1  0.37500  0.62500  0.12500  1
 V  V1  1  0.87500  0.12500  0.62500  1
