CIF file written using JARVIS-Tools package.
data_CdHg2SeO6
_symmetry_space_group_name_H-M  'P-1'
_cell_length_a       6.99478
_cell_length_b       7.28584
_cell_length_c       7.58461
_cell_angle_alpha    74.5064
_cell_angle_beta     67.4008
_cell_angle_gamma    63.9758

_symmetry_Int_Tables_number  2
_chemical_formula_structural  CdHg2SeO6
_chemical_formula_sum  Cd2Hg4Se2O2
_cell_volume  318.4020038368737
_cell_formula_units_Z  2
loop_
  _symmetry_equiv_pos_site_id
 _symmetry_equiv_pos_as_xyz
 1  'x, y, z'
loop_
 _atom_site_type_symbol
 _atom_site_label
 _atom_site_symmetry_multiplicity
 _atom_site_fract_x
 _atom_site_fract_y
 _atom_site_fract_z
 _atom_site_fract_occupancy
 Cd  Cd1  1  0.33257  0.13555  0.21291  1
 Cd  Cd2  1  0.66743  0.86445  0.78709  1
 Hg  Hg1  1  0.84159  0.64214  0.20987  1
 Hg  Hg2  1  0.15841  0.35786  0.79013  1
 Hg  Hg3  1  0.66094  0.36062  0.79103  1
 Hg  Hg4  1  0.33906  0.63938  0.20897  1
 O  O1  1  0.63491  0.20838  0.16888  1
 O  O2  1  0.72021  0.32325  0.43452  1
 O  O3  1  0.93838  0.92402  0.83635  1
 O  O4  1  0.77637  0.91635  0.45333  1
 O  O5  1  0.45066  0.19938  0.86306  1
 O  O6  1  0.14643  0.47533  0.25117  1
 O  O7  1  0.36509  0.79162  0.83112  1
 O  O8  1  0.54934  0.80062  0.13694  1
 O  O9  1  0.27979  0.67675  0.56548  1
 O  O10  1  0.85357  0.52467  0.74883  1
 O  O11  1  0.22363  0.08365  0.54667  1
 O  O12  1  0.06162  0.07598  0.16365  1
 Se  Se1  1  0.20317  0.86786  0.68876  1
 Se  Se2  1  0.79683  0.13214  0.31124  1
