CIF file written using JARVIS-Tools package.
data_LiMn3O4F2
_symmetry_space_group_name_H-M  'P1'
_cell_length_a       4.90957
_cell_length_b       5.50338
_cell_length_c       5.4038
_cell_angle_alpha    120.228
_cell_angle_beta     57.8365
_cell_angle_gamma    116.403

_symmetry_Int_Tables_number  1
_chemical_formula_structural  LiMn3O4F2
_chemical_formula_sum  LiMn3O4F2
_cell_volume  103.63043511933972
_cell_formula_units_Z  1
loop_
  _symmetry_equiv_pos_site_id
 _symmetry_equiv_pos_as_xyz
 1  'x, y, z'
loop_
 _atom_site_type_symbol
 _atom_site_label
 _atom_site_symmetry_multiplicity
 _atom_site_fract_x
 _atom_site_fract_y
 _atom_site_fract_z
 _atom_site_fract_occupancy
 F  F1  1  0.22552  0.76755  0.92999  1
 F  F2  1  0.95268  0.77886  0.54118  1
 Li  Li1  1  0.60214  0.89361  0.61164  1
 Mn  Mn1  1  0.15652  0.43661  0.16369  1
 Mn  Mn2  1  0.38032  0.07189  0.35312  1
 Mn  Mn3  1  0.83052  0.50244  0.85346  1
 O  O1  1  0.09445  0.28099  0.45950  1
 O  O2  1  0.54351  0.73976  0.21735  1
 O  O3  1  0.76486  0.26714  0.10459  1
 O  O4  1  0.44949  0.26115  0.76548  1
