CIF file written using JARVIS-Tools package.
data_Nd3OsO7
_symmetry_space_group_name_H-M  'Cmcm'
_cell_length_a       6.65517
_cell_length_b       6.65518
_cell_length_c       7.57436
_cell_angle_alpha    90
_cell_angle_beta     90
_cell_angle_gamma    111.477

_symmetry_Int_Tables_number  63
_chemical_formula_structural  Nd3OsO7
_chemical_formula_sum  Nd6Os2O4
_cell_volume  312.1838324206169
_cell_formula_units_Z  2
loop_
  _symmetry_equiv_pos_site_id
 _symmetry_equiv_pos_as_xyz
 1  'x, y, z'
loop_
 _atom_site_type_symbol
 _atom_site_label
 _atom_site_symmetry_multiplicity
 _atom_site_fract_x
 _atom_site_fract_y
 _atom_site_fract_z
 _atom_site_fract_occupancy
 Nd  Nd1  1  0.53050  0.07923  0.25000  1
 Nd  Nd2  1  0.46950  0.92077  0.75000  1
 Nd  Nd3  1  0.07923  0.53050  0.25000  1
 Nd  Nd4  1  0.92077  0.46950  0.75000  1
 Nd  Nd5  1  0.00000  0.00000  0.50000  1
 Nd  Nd6  1  0.00000  0.00000  0.00000  1
 O  O1  1  0.44344  0.44344  0.25000  1
 O  O2  1  0.10312  0.84048  0.75000  1
 O  O3  1  0.89688  0.15952  0.25000  1
 O  O4  1  0.84048  0.10312  0.75000  1
 O  O5  1  0.15952  0.89688  0.25000  1
 O  O6  1  0.18446  0.43514  0.96470  1
 O  O7  1  0.81554  0.56486  0.46470  1
 O  O8  1  0.81554  0.56486  0.03530  1
 O  O9  1  0.55656  0.55656  0.75000  1
 O  O10  1  0.56486  0.81554  0.46470  1
 O  O11  1  0.56486  0.81554  0.03530  1
 O  O12  1  0.43514  0.18446  0.53530  1
 O  O13  1  0.43514  0.18446  0.96470  1
 O  O14  1  0.18446  0.43514  0.53530  1
 Os  Os1  1  0.50000  0.50000  0.00000  1
 Os  Os2  1  0.50000  0.50000  0.50000  1
