CIF file written using JARVIS-Tools package.
data_InBiSe3
_symmetry_space_group_name_H-M  'R3m'
_cell_length_a       9.82473
_cell_length_b       9.82474
_cell_length_c       9.82473
_cell_angle_alpha    24.123
_cell_angle_beta     24.123
_cell_angle_gamma    24.123

_symmetry_Int_Tables_number  160
_chemical_formula_structural  InBiSe3
_chemical_formula_sum  InBiSe3
_cell_volume  139.20661930523505
_cell_formula_units_Z  1
loop_
  _symmetry_equiv_pos_site_id
 _symmetry_equiv_pos_as_xyz
 1  'x, y, z'
loop_
 _atom_site_type_symbol
 _atom_site_label
 _atom_site_symmetry_multiplicity
 _atom_site_fract_x
 _atom_site_fract_y
 _atom_site_fract_z
 _atom_site_fract_occupancy
 Bi  Bi1  1  0.60134  0.60134  0.60134  1
 In  In1  1  0.40102  0.40102  0.40102  1
 Se  Se1  1  0.78089  0.78089  0.78089  1
 Se  Se2  1  0.21172  0.21172  0.21172  1
 Se  Se3  1  0.00502  0.00502  0.00502  1
