CIF file written using JARVIS-Tools package.
data_MgFeP4O12
_symmetry_space_group_name_H-M  'C2/c'
_cell_length_a       7.23076
_cell_length_b       7.23072
_cell_length_c       9.7619
_cell_angle_alpha    98.8703
_cell_angle_beta     109.815
_cell_angle_gamma    109.522

_symmetry_Int_Tables_number  15
_chemical_formula_structural  MgFeP4O12
_chemical_formula_sum  Mg2Fe2P8O24
_cell_volume  431.48486311422437
_cell_formula_units_Z  2
loop_
  _symmetry_equiv_pos_site_id
 _symmetry_equiv_pos_as_xyz
 1  'x, y, z'
loop_
 _atom_site_type_symbol
 _atom_site_label
 _atom_site_symmetry_multiplicity
 _atom_site_fract_x
 _atom_site_fract_y
 _atom_site_fract_z
 _atom_site_fract_occupancy
 Fe  Fe1  1  0.00022  0.99990  0.49986  1
 Fe  Fe2  1  0.00022  0.49990  0.99986  1
 Mg  Mg1  1  0.19834  0.94801  0.24986  1
 Mg  Mg2  1  0.80210  0.05179  0.74986  1
 O  O1  1  0.03586  0.11620  0.31319  1
 O  O2  1  0.04607  0.65036  0.84964  1
 O  O3  1  0.21890  0.49475  0.43248  1
 O  O4  1  0.95436  0.34944  0.15007  1
 O  O5  1  0.69955  0.80383  0.34965  1
 O  O6  1  0.78153  0.50504  0.56723  1
 O  O7  1  0.25230  0.08382  0.09397  1
 O  O8  1  0.69725  0.27759  0.81319  1
 O  O9  1  0.56245  0.78596  0.06723  1
 O  O10  1  0.18768  0.68742  0.65177  1
 O  O11  1  0.53583  0.53545  0.84794  1
 O  O12  1  0.81276  0.31237  0.34794  1
 O  O13  1  0.46461  0.46435  0.15178  1
 O  O14  1  0.43799  0.21384  0.93248  1
 O  O15  1  0.96458  0.88360  0.68652  1
 O  O16  1  0.13497  0.80728  0.41503  1
 O  O17  1  0.30090  0.19598  0.65007  1
 O  O18  1  0.10801  0.28032  0.91503  1
 O  O19  1  0.86547  0.19252  0.58469  1
 O  O20  1  0.74814  0.91598  0.90574  1
 O  O21  1  0.51041  0.84193  0.59397  1
 O  O22  1  0.30319  0.72220  0.18652  1
 O  O23  1  0.89243  0.71948  0.08469  1
 O  O24  1  0.49002  0.15786  0.40574  1
 P  P1  1  0.99677  0.68986  0.69926  1
 P  P2  1  0.50967  0.70276  0.19927  1
 P  P3  1  0.00366  0.30994  0.30045  1
 P  P4  1  0.49077  0.29705  0.80045  1
 P  P5  1  0.72692  0.27370  0.47841  1
 P  P6  1  0.70498  0.75176  0.97842  1
 P  P7  1  0.27352  0.72609  0.52130  1
 P  P8  1  0.29547  0.24804  0.02130  1
