CIF file written using JARVIS-Tools package.
data_Y2MgS4
_symmetry_space_group_name_H-M  'Fd-3m'
_cell_length_a       7.87223
_cell_length_b       7.87224
_cell_length_c       7.87224
_cell_angle_alpha    59.9999
_cell_angle_beta     60
_cell_angle_gamma    60

_symmetry_Int_Tables_number  227
_chemical_formula_structural  Y2MgS4
_chemical_formula_sum  Y4Mg2S8
_cell_volume  344.9695193596495
_cell_formula_units_Z  2
loop_
  _symmetry_equiv_pos_site_id
 _symmetry_equiv_pos_as_xyz
 1  'x, y, z'
loop_
 _atom_site_type_symbol
 _atom_site_label
 _atom_site_symmetry_multiplicity
 _atom_site_fract_x
 _atom_site_fract_y
 _atom_site_fract_z
 _atom_site_fract_occupancy
 Mg  Mg1  1  0.00000  0.00000  0.00000  1
 Mg  Mg2  1  0.25000  0.25000  0.25000  1
 S  S1  1  0.37931  0.37932  0.37932  1
 S  S2  1  0.86205  0.37932  0.37932  1
 S  S3  1  0.37932  0.86205  0.37931  1
 S  S4  1  0.37932  0.37931  0.86205  1
 S  S5  1  0.87068  0.87069  0.38795  1
 S  S6  1  0.87068  0.38795  0.87069  1
 S  S7  1  0.38795  0.87068  0.87068  1
 S  S8  1  0.87069  0.87068  0.87068  1
 Y  Y1  1  0.62500  0.12500  0.62500  1
 Y  Y2  1  0.62500  0.62500  0.12500  1
 Y  Y3  1  0.12500  0.62500  0.62500  1
 Y  Y4  1  0.62500  0.62500  0.62500  1
