CIF file written using JARVIS-Tools package.
data_Be3N2
_symmetry_space_group_name_H-M  'P6_3/mmc'
_cell_length_a       2.85324
_cell_length_b       2.85324
_cell_length_c       9.78437
_cell_angle_alpha    90
_cell_angle_beta     90
_cell_angle_gamma    120

_symmetry_Int_Tables_number  194
_chemical_formula_structural  Be3N2
_chemical_formula_sum  Be6N4
_cell_volume  68.9829135299492
_cell_formula_units_Z  2
loop_
  _symmetry_equiv_pos_site_id
 _symmetry_equiv_pos_as_xyz
 1  'x, y, z'
loop_
 _atom_site_type_symbol
 _atom_site_label
 _atom_site_symmetry_multiplicity
 _atom_site_fract_x
 _atom_site_fract_y
 _atom_site_fract_z
 _atom_site_fract_occupancy
 Be  Be1  1  0.66667  0.33333  0.92187  1
 Be  Be2  1  0.33333  0.66667  0.42187  1
 Be  Be3  1  0.33333  0.66667  0.07813  1
 Be  Be4  1  0.66667  0.33333  0.57813  1
 Be  Be5  1  0.00000  0.00000  0.75000  1
 Be  Be6  1  0.00000  0.00000  0.25000  1
 N  N1  1  0.00000  0.00000  0.00000  1
 N  N2  1  0.00000  0.00000  0.50000  1
 N  N3  1  0.66667  0.33333  0.75000  1
 N  N4  1  0.33333  0.66667  0.25000  1
