CIF file written using JARVIS-Tools package.
data_KRb2MoO3F3
_symmetry_space_group_name_H-M  'Fmm2'
_cell_length_a       6.40792
_cell_length_b       6.30567
_cell_length_c       6.26689
_cell_angle_alpha    61.2835
_cell_angle_beta     59.6566
_cell_angle_gamma    59.0599

_symmetry_Int_Tables_number  42
_chemical_formula_structural  KRb2MoO3F3
_chemical_formula_sum  KRb2MoO3F3
_cell_volume  178.9086353236513
_cell_formula_units_Z  1
loop_
  _symmetry_equiv_pos_site_id
 _symmetry_equiv_pos_as_xyz
 1  'x, y, z'
loop_
 _atom_site_type_symbol
 _atom_site_label
 _atom_site_symmetry_multiplicity
 _atom_site_fract_x
 _atom_site_fract_y
 _atom_site_fract_z
 _atom_site_fract_occupancy
 F  F1  1  0.22721  0.78183  0.21817  1
 F  F2  1  0.77632  0.77632  0.22368  1
 F  F3  1  0.78183  0.22721  0.77279  1
 K  K1  1  0.50382  0.50382  0.49618  1
 Mo  Mo1  1  0.01963  0.01963  0.98037  1
 O  O1  1  0.18017  0.77432  0.81983  1
 O  O2  1  0.21230  0.21230  0.78770  1
 O  O3  1  0.77432  0.18017  0.22568  1
 Rb  Rb1  1  0.76220  0.76220  0.73780  1
 Rb  Rb2  1  0.26220  0.26220  0.23780  1
