CIF file written using JARVIS-Tools package.
data_Bi2O3
_symmetry_space_group_name_H-M  'Cm'
_cell_length_a       3.94595
_cell_length_b       3.84091
_cell_length_c       8.227
_cell_angle_alpha    62.1689
_cell_angle_beta     61.0603
_cell_angle_gamma    60.8767

_symmetry_Int_Tables_number  8
_chemical_formula_structural  Bi2O3
_chemical_formula_sum  Bi2O3
_cell_volume  90.8534466479336
_cell_formula_units_Z  1
loop_
  _symmetry_equiv_pos_site_id
 _symmetry_equiv_pos_as_xyz
 1  'x, y, z'
loop_
 _atom_site_type_symbol
 _atom_site_label
 _atom_site_symmetry_multiplicity
 _atom_site_fract_x
 _atom_site_fract_y
 _atom_site_fract_z
 _atom_site_fract_occupancy
 Bi  Bi1  1  0.00884  0.97343  0.02215  1
 Bi  Bi2  1  0.94082  0.01819  0.51140  1
 O  O1  1  0.15195  0.25496  0.16907  1
 O  O2  1  0.61890  0.70436  0.48619  1
 O  O3  1  0.68949  0.79907  0.85619  1
