CIF file written using JARVIS-Tools package.
data_K4MnBr6
_symmetry_space_group_name_H-M  'R-3c'
_cell_length_a       8.88318
_cell_length_b       8.88319
_cell_length_c       8.88318
_cell_angle_alpha    89.6239
_cell_angle_beta     89.6239
_cell_angle_gamma    89.6239

_symmetry_Int_Tables_number  167
_chemical_formula_structural  K4MnBr6
_chemical_formula_sum  K8Mn2Br2
_cell_volume  700.934740535301
_cell_formula_units_Z  2
loop_
  _symmetry_equiv_pos_site_id
 _symmetry_equiv_pos_as_xyz
 1  'x, y, z'
loop_
 _atom_site_type_symbol
 _atom_site_label
 _atom_site_symmetry_multiplicity
 _atom_site_fract_x
 _atom_site_fract_y
 _atom_site_fract_z
 _atom_site_fract_occupancy
 Br  Br1  1  0.44279  0.79264  0.56835  1
 Br  Br2  1  0.56835  0.44279  0.79264  1
 Br  Br3  1  0.06835  0.29264  0.94279  1
 Br  Br4  1  0.94279  0.06835  0.29264  1
 Br  Br5  1  0.55721  0.20736  0.43165  1
 Br  Br6  1  0.29264  0.94279  0.06835  1
 Br  Br7  1  0.20736  0.43165  0.55721  1
 Br  Br8  1  0.70736  0.05721  0.93165  1
 Br  Br9  1  0.93165  0.70736  0.05721  1
 Br  Br10  1  0.05721  0.93165  0.70736  1
 Br  Br11  1  0.79264  0.56835  0.44279  1
 Br  Br12  1  0.43165  0.55721  0.20736  1
 K  K1  1  0.12946  0.75000  0.37054  1
 K  K2  1  0.75000  0.37054  0.12946  1
 K  K3  1  0.37054  0.12946  0.75000  1
 K  K4  1  0.87054  0.25000  0.62946  1
 K  K5  1  0.25000  0.62946  0.87054  1
 K  K6  1  0.62946  0.87054  0.25000  1
 K  K7  1  0.75000  0.75000  0.75000  1
 K  K8  1  0.25000  0.25000  0.25000  1
 Mn  Mn1  1  0.50000  0.50000  0.50000  1
 Mn  Mn2  1  0.00000  0.00000  0.00000  1
