CIF file written using JARVIS-Tools package.
data_DyMnAl
_symmetry_space_group_name_H-M  'Imma'
_cell_length_a       5.26043
_cell_length_b       5.26044
_cell_length_c       5.26043
_cell_angle_alpha    120.743
_cell_angle_beta     116.326
_cell_angle_gamma    92.5989

_symmetry_Int_Tables_number  74
_chemical_formula_structural  DyMnAl
_chemical_formula_sum  Dy2Mn2Al2
_cell_volume  104.9103855695819
_cell_formula_units_Z  2
loop_
  _symmetry_equiv_pos_site_id
 _symmetry_equiv_pos_as_xyz
 1  'x, y, z'
loop_
 _atom_site_type_symbol
 _atom_site_label
 _atom_site_symmetry_multiplicity
 _atom_site_fract_x
 _atom_site_fract_y
 _atom_site_fract_z
 _atom_site_fract_occupancy
 Al  Al1  1  -0.00000  0.50000  0.50000  1
 Al  Al2  1  0.50000  0.50000  -0.00000  1
 Dy  Dy1  1  0.13775  0.88775  0.25000  1
 Dy  Dy2  1  0.86225  0.11225  0.75000  1
 Mn  Mn1  1  0.50000  0.00000  0.00000  1
 Mn  Mn2  1  0.50000  0.50000  0.50000  1
