CIF file written using JARVIS-Tools package.
data_NaNi2O3
_symmetry_space_group_name_H-M  'C2/m'
_cell_length_a       2.96879
_cell_length_b       2.96222
_cell_length_c       7.58157
_cell_angle_alpha    90.1368
_cell_angle_beta     90.0192
_cell_angle_gamma    120.043

_symmetry_Int_Tables_number  12
_chemical_formula_structural  NaNi2O3
_chemical_formula_sum  NaNi2O3
_cell_volume  57.71601624500989
_cell_formula_units_Z  1
loop_
  _symmetry_equiv_pos_site_id
 _symmetry_equiv_pos_as_xyz
 1  'x, y, z'
loop_
 _atom_site_type_symbol
 _atom_site_label
 _atom_site_symmetry_multiplicity
 _atom_site_fract_x
 _atom_site_fract_y
 _atom_site_fract_z
 _atom_site_fract_occupancy
 Na  Na1  1  1.00000  -0.00000  0.50000  1
 Ni  Ni1  1  0.33209  0.66471  0.16345  1
 Ni  Ni2  1  0.66791  0.33529  0.83655  1
 O  O1  1  0.33479  0.66912  0.70820  1
 O  O2  1  0.00001  0.00000  0.00000  1
 O  O3  1  0.66520  0.33088  0.29180  1
