CIF file written using JARVIS-Tools package.
data_Sr
_symmetry_space_group_name_H-M  'P6/mmm'
_cell_length_a       6.95138
_cell_length_b       6.95138
_cell_length_c       7.43714
_cell_angle_alpha    90
_cell_angle_beta     90
_cell_angle_gamma    120

_symmetry_Int_Tables_number  191
_chemical_formula_structural  Sr
_chemical_formula_sum  Sr6
_cell_volume  311.2278156146803
_cell_formula_units_Z  6
loop_
  _symmetry_equiv_pos_site_id
 _symmetry_equiv_pos_as_xyz
 1  'x, y, z'
loop_
 _atom_site_type_symbol
 _atom_site_label
 _atom_site_symmetry_multiplicity
 _atom_site_fract_x
 _atom_site_fract_y
 _atom_site_fract_z
 _atom_site_fract_occupancy
 Sr  Sr1  1  0.33332  0.00000  0.00000  1
 Sr  Sr2  1  0.00000  0.33332  0.00000  1
 Sr  Sr3  1  0.66668  0.66668  0.00000  1
 Sr  Sr4  1  0.00000  0.33332  0.50000  1
 Sr  Sr5  1  0.33332  0.00000  0.50000  1
 Sr  Sr6  1  0.66668  0.66668  0.50000  1
