CIF file written using JARVIS-Tools package.
data_NiO2
_symmetry_space_group_name_H-M  'R3m'
_cell_length_a       5.60254
_cell_length_b       5.61086
_cell_length_c       5.61087
_cell_angle_alpha    60
_cell_angle_beta     59.9509
_cell_angle_gamma    59.9508

_symmetry_Int_Tables_number  160
_chemical_formula_structural  NiO2
_chemical_formula_sum  Ni4O8
_cell_volume  124.62565232970562
_cell_formula_units_Z  4
loop_
  _symmetry_equiv_pos_site_id
 _symmetry_equiv_pos_as_xyz
 1  'x, y, z'
loop_
 _atom_site_type_symbol
 _atom_site_label
 _atom_site_symmetry_multiplicity
 _atom_site_fract_x
 _atom_site_fract_y
 _atom_site_fract_z
 _atom_site_fract_occupancy
 Ni  Ni1  1  0.27396  0.24201  0.24201  1
 Ni  Ni2  1  0.62910  0.11764  0.62663  1
 Ni  Ni3  1  0.62910  0.62663  0.11764  1
 Ni  Ni4  1  0.62910  0.62663  0.62663  1
 O  O1  1  0.39686  0.37782  0.37782  1
 O  O2  1  0.39686  0.37782  0.84751  1
 O  O3  1  0.39686  0.84751  0.37782  1
 O  O4  1  0.84748  0.38417  0.38417  1
 O  O5  1  0.41241  0.86253  0.86253  1
 O  O6  1  0.84021  0.40941  0.87519  1
 O  O7  1  0.84021  0.87519  0.40941  1
 O  O8  1  0.84021  0.87519  0.87519  1
