CIF file written using JARVIS-Tools package.
data_Ti2ZnS4
_symmetry_space_group_name_H-M  'Fd-3m'
_cell_length_a       7.17558
_cell_length_b       7.17557
_cell_length_c       7.17603
_cell_angle_alpha    119.998
_cell_angle_beta     119.998
_cell_angle_gamma    90.0001

_symmetry_Int_Tables_number  227
_chemical_formula_structural  Ti2ZnS4
_chemical_formula_sum  Ti4Zn2S8
_cell_volume  261.2821022802641
_cell_formula_units_Z  2
loop_
  _symmetry_equiv_pos_site_id
 _symmetry_equiv_pos_as_xyz
 1  'x, y, z'
loop_
 _atom_site_type_symbol
 _atom_site_label
 _atom_site_symmetry_multiplicity
 _atom_site_fract_x
 _atom_site_fract_y
 _atom_site_fract_z
 _atom_site_fract_occupancy
 S  S1  1  0.75641  0.76917  0.51282  1
 S  S2  1  0.75635  0.24359  0.98718  1
 S  S3  1  0.23083  0.24359  0.98718  1
 S  S4  1  0.24359  0.23083  0.48718  1
 S  S5  1  0.24359  0.75635  0.48718  1
 S  S6  1  0.24365  0.75641  0.01282  1
 S  S7  1  0.75641  0.24365  0.51282  1
 S  S8  1  0.76917  0.75641  0.01282  1
 Ti  Ti1  1  0.00000  0.00000  0.50000  1
 Ti  Ti2  1  0.00000  0.50000  0.00000  1
 Ti  Ti3  1  0.50000  0.00000  0.50000  1
 Ti  Ti4  1  0.00000  0.00000  0.00000  1
 Zn  Zn1  1  0.37500  0.62500  0.75000  1
 Zn  Zn2  1  0.62500  0.37500  0.25000  1
