CIF file written using JARVIS-Tools package.
data_Li2MnFeB2O6
_symmetry_space_group_name_H-M  'P-1'
_cell_length_a       5.15054
_cell_length_b       5.97068
_cell_length_c       8.07314
_cell_angle_alpha    78.0575
_cell_angle_beta     90.2534
_cell_angle_gamma    90.0426

_symmetry_Int_Tables_number  2
_chemical_formula_structural  Li2MnFeB2O6
_chemical_formula_sum  Li4Mn2Fe2B4O2
_cell_volume  242.8915452723876
_cell_formula_units_Z  2
loop_
  _symmetry_equiv_pos_site_id
 _symmetry_equiv_pos_as_xyz
 1  'x, y, z'
loop_
 _atom_site_type_symbol
 _atom_site_label
 _atom_site_symmetry_multiplicity
 _atom_site_fract_x
 _atom_site_fract_y
 _atom_site_fract_z
 _atom_site_fract_occupancy
 B  B1  1  0.40972  0.42884  0.32984  1
 B  B2  1  0.07148  0.09557  0.17216  1
 B  B3  1  0.92852  0.90443  0.82784  1
 B  B4  1  0.59028  0.57116  0.67016  1
 Fe  Fe1  1  0.57677  0.20669  0.98524  1
 Fe  Fe2  1  0.42323  0.79331  0.01476  1
 Li  Li1  1  0.91591  0.53766  0.14762  1
 Li  Li2  1  0.08409  0.46234  0.85238  1
 Li  Li3  1  0.57287  0.96784  0.35195  1
 Li  Li4  1  0.42713  0.03216  0.64805  1
 Mn  Mn1  1  0.90688  0.25781  0.50258  1
 Mn  Mn2  1  0.09312  0.74219  0.49742  1
 O  O1  1  0.44559  0.45068  0.80377  1
 O  O2  1  0.48143  0.74695  0.55179  1
 O  O3  1  0.85354  0.51746  0.65761  1
 O  O4  1  0.14646  0.48254  0.34239  1
 O  O5  1  0.51857  0.25305  0.44821  1
 O  O6  1  0.33617  0.04518  0.16020  1
 O  O7  1  0.93913  0.99708  0.31707  1
 O  O8  1  0.95039  0.24867  0.04422  1
 O  O9  1  0.06087  0.00292  0.68293  1
 O  O10  1  0.66383  0.95482  0.83980  1
 O  O11  1  0.55441  0.54932  0.19623  1
 O  O12  1  0.04961  0.75133  0.95578  1
