CIF file written using JARVIS-Tools package.
data_IOF3
_symmetry_space_group_name_H-M  'P2_12_12_1'
_cell_length_a       5.11858
_cell_length_b       5.43349
_cell_length_c       11.0537
_cell_angle_alpha    90
_cell_angle_beta     90
_cell_angle_gamma    90

_symmetry_Int_Tables_number  19
_chemical_formula_structural  IOF3
_chemical_formula_sum  I4O4F2
_cell_volume  307.4235266490557
_cell_formula_units_Z  4
loop_
  _symmetry_equiv_pos_site_id
 _symmetry_equiv_pos_as_xyz
 1  'x, y, z'
loop_
 _atom_site_type_symbol
 _atom_site_label
 _atom_site_symmetry_multiplicity
 _atom_site_fract_x
 _atom_site_fract_y
 _atom_site_fract_z
 _atom_site_fract_occupancy
 F  F1  1  0.53189  0.22168  0.77541  1
 F  F2  1  0.82967  0.62956  0.03621  1
 F  F3  1  0.17033  0.12956  0.46379  1
 F  F4  1  0.67033  0.37044  0.53621  1
 F  F5  1  0.03189  0.27832  0.22459  1
 F  F6  1  0.54274  0.48873  0.30814  1
 F  F7  1  0.96811  0.77832  0.27541  1
 F  F8  1  0.45726  -0.01127  0.19186  1
 F  F9  1  0.32967  0.87044  -0.03621  1
 F  F10  1  0.95726  0.51127  0.80814  1
 F  F11  1  0.04274  0.01127  0.69186  1
 F  F12  1  0.46811  0.72168  0.72459  1
 I  I1  1  0.83551  0.56743  0.40752  1
 I  I2  1  0.33551  0.93257  0.59248  1
 I  I3  1  0.16449  0.06743  0.09248  1
 I  I4  1  0.66449  0.43257  0.90752  1
 O  O1  1  0.31926  0.34060  0.03376  1
 O  O2  1  0.18074  0.65940  0.53376  1
 O  O3  1  0.68074  0.84060  0.46624  1
 O  O4  1  0.81926  0.15940  0.96624  1
