CIF file written using JARVIS-Tools package.
data_CaCO3
_symmetry_space_group_name_H-M  'R-3c'
_cell_length_a       6.32888
_cell_length_b       6.32887
_cell_length_c       6.32888
_cell_angle_alpha    46.9475
_cell_angle_beta     46.9476
_cell_angle_gamma    46.9475

_symmetry_Int_Tables_number  167
_chemical_formula_structural  CaCO3
_chemical_formula_sum  Ca2C2O6
_cell_volume  123.72009913549793
_cell_formula_units_Z  2
loop_
  _symmetry_equiv_pos_site_id
 _symmetry_equiv_pos_as_xyz
 1  'x, y, z'
loop_
 _atom_site_type_symbol
 _atom_site_label
 _atom_site_symmetry_multiplicity
 _atom_site_fract_x
 _atom_site_fract_y
 _atom_site_fract_z
 _atom_site_fract_occupancy
 C  C1  1  0.75000  0.75000  0.75000  1
 C  C2  1  0.25000  0.25000  0.25000  1
 Ca  Ca1  1  0.50000  0.50000  0.50000  1
 Ca  Ca2  1  0.00000  0.00000  0.00000  1
 O  O1  1  0.75000  0.49288  0.00712  1
 O  O2  1  0.00712  0.75000  0.49288  1
 O  O3  1  0.50712  0.99288  0.25000  1
 O  O4  1  0.25000  0.50712  0.99288  1
 O  O5  1  0.99288  0.25000  0.50712  1
 O  O6  1  0.49288  0.00712  0.75000  1
