CIF file written using JARVIS-Tools package.
data_V2Zn3Si4O14
_symmetry_space_group_name_H-M  'C2/c'
_cell_length_a       7.71697
_cell_length_b       9.63719
_cell_length_c       9.06828
_cell_angle_alpha    62.7589
_cell_angle_beta     64.8182
_cell_angle_gamma    66.3985

_symmetry_Int_Tables_number  15
_chemical_formula_structural  V2Zn3Si4O14
_chemical_formula_sum  V4Zn6Si8O28
_cell_volume  524.6051150470598
_cell_formula_units_Z  2
loop_
  _symmetry_equiv_pos_site_id
 _symmetry_equiv_pos_as_xyz
 1  'x, y, z'
loop_
 _atom_site_type_symbol
 _atom_site_label
 _atom_site_symmetry_multiplicity
 _atom_site_fract_x
 _atom_site_fract_y
 _atom_site_fract_z
 _atom_site_fract_occupancy
 O  O1  1  0.66474  0.76665  0.92591  1
 O  O2  1  0.45824  0.08976  0.80659  1
 O  O3  1  0.89824  0.93530  0.65758  1
 O  O4  1  0.64541  0.58976  0.30659  1
 O  O5  1  0.33526  0.23335  0.07409  1
 O  O6  1  0.49056  0.87542  0.68452  1
 O  O7  1  0.71144  0.16439  0.96763  1
 O  O8  1  0.74452  0.67556  0.51663  1
 O  O9  1  0.25548  0.32444  0.48337  1
 O  O10  1  0.95376  0.41734  0.74718  1
 O  O11  1  0.35729  0.73335  0.57409  1
 O  O12  1  0.05050  0.62458  0.81548  1
 O  O13  1  0.93671  0.82444  0.98337  1
 O  O14  1  0.35459  0.41024  0.69341  1
 O  O15  1  0.94950  0.37542  0.18452  1
 O  O16  1  0.28856  0.83561  0.03237  1
 O  O17  1  0.11828  0.08266  0.75282  1
 O  O18  1  0.54176  0.91024  0.19341  1
 O  O19  1  0.04624  0.58266  0.25282  1
 O  O20  1  0.15654  0.66439  0.46763  1
 O  O21  1  0.49113  0.56470  0.84242  1
 O  O22  1  0.88172  0.91734  0.24718  1
 O  O23  1  0.84346  0.33561  0.53237  1
 O  O24  1  0.50887  0.43530  0.15758  1
 O  O25  1  0.64271  0.26665  0.42591  1
 O  O26  1  0.10176  0.06470  0.34242  1
 O  O27  1  0.06329  0.17556  0.01663  1
 O  O28  1  0.50944  0.12458  0.31548  1
 Si  Si1  1  0.23236  0.59903  0.64220  1
 Si  Si2  1  0.10968  0.21027  0.15397  1
 Si  Si3  1  0.52641  0.09903  0.14220  1
 Si  Si4  1  0.52608  0.71027  0.65397  1
 Si  Si5  1  0.89032  0.78973  0.84603  1
 Si  Si6  1  0.47392  0.28973  0.34603  1
 Si  Si7  1  0.76764  0.40097  0.35780  1
 Si  Si8  1  0.47359  0.90097  0.85780  1
 V  V1  1  -0.00000  0.50000  0.50000  1
 V  V2  1  0.00000  0.00000  0.00000  1
 V  V3  1  0.80612  0.75000  0.25000  1
 V  V4  1  0.19388  0.25000  0.75000  1
 Zn  Zn1  1  0.39582  0.75000  0.25000  1
 Zn  Zn2  1  0.06118  0.09735  0.55866  1
 Zn  Zn3  1  0.60418  0.25000  0.75000  1
 Zn  Zn4  1  0.71719  0.40265  0.94134  1
 Zn  Zn5  1  0.28281  0.59735  0.05866  1
 Zn  Zn6  1  0.93882  0.90265  0.44134  1
