CIF file written using JARVIS-Tools package.
data_Ho3Pd2
_symmetry_space_group_name_H-M  'P4/mbm'
_cell_length_a       7.72446
_cell_length_b       7.72446
_cell_length_c       3.89184
_cell_angle_alpha    90
_cell_angle_beta     90
_cell_angle_gamma    90

_symmetry_Int_Tables_number  127
_chemical_formula_structural  Ho3Pd2
_chemical_formula_sum  Ho6Pd4
_cell_volume  232.21560048504443
_cell_formula_units_Z  2
loop_
  _symmetry_equiv_pos_site_id
 _symmetry_equiv_pos_as_xyz
 1  'x, y, z'
loop_
 _atom_site_type_symbol
 _atom_site_label
 _atom_site_symmetry_multiplicity
 _atom_site_fract_x
 _atom_site_fract_y
 _atom_site_fract_z
 _atom_site_fract_occupancy
 Ho  Ho1  1  0.83495  0.66505  0.50000  1
 Ho  Ho2  1  0.33495  0.83495  0.50000  1
 Ho  Ho3  1  0.16505  0.33495  0.50000  1
 Ho  Ho4  1  0.66505  0.16505  0.50000  1
 Ho  Ho5  1  0.50000  0.50000  0.00000  1
 Ho  Ho6  1  0.00000  0.00000  0.00000  1
 Pd  Pd1  1  0.13320  0.63320  0.00000  1
 Pd  Pd2  1  0.63320  0.86680  0.00000  1
 Pd  Pd3  1  0.36680  0.13320  0.00000  1
 Pd  Pd4  1  0.86680  0.36680  0.00000  1
