CIF file written using JARVIS-Tools package.
data_CrO
_symmetry_space_group_name_H-M  'P4_2/mmc'
_cell_length_a       4.20011
_cell_length_b       5.22652
_cell_length_c       4.19444
_cell_angle_alpha    90
_cell_angle_beta     90.0001
_cell_angle_gamma    90.0018

_symmetry_Int_Tables_number  131
_chemical_formula_structural  CrO
_chemical_formula_sum  Cr4O4
_cell_volume  92.07617620192633
_cell_formula_units_Z  4
loop_
  _symmetry_equiv_pos_site_id
 _symmetry_equiv_pos_as_xyz
 1  'x, y, z'
loop_
 _atom_site_type_symbol
 _atom_site_label
 _atom_site_symmetry_multiplicity
 _atom_site_fract_x
 _atom_site_fract_y
 _atom_site_fract_z
 _atom_site_fract_occupancy
 Cr  Cr1  1  0.40003  0.90000  0.50001  1
 Cr  Cr2  1  0.40003  0.40000  -0.00001  1
 Cr  Cr3  1  0.90003  0.90000  0.00001  1
 Cr  Cr4  1  0.90003  0.40000  0.49999  1
 O  O1  1  0.65003  0.15000  0.24997  1
 O  O2  1  0.15002  0.15000  0.74997  1
 O  O3  1  0.65002  0.65000  0.25003  1
 O  O4  1  0.15002  0.65000  0.75003  1
