CIF file written using JARVIS-Tools package.
data_PtCl2
_symmetry_space_group_name_H-M  'Immm'
_cell_length_a       6.11886
_cell_length_b       6.11887
_cell_length_c       7.22745
_cell_angle_alpha    72.9901
_cell_angle_beta     72.9901
_cell_angle_gamma    32.9026

_symmetry_Int_Tables_number  71
_chemical_formula_structural  PtCl2
_chemical_formula_sum  Pt2Cl4
_cell_volume  139.98819557401313
_cell_formula_units_Z  2
loop_
  _symmetry_equiv_pos_site_id
 _symmetry_equiv_pos_as_xyz
 1  'x, y, z'
loop_
 _atom_site_type_symbol
 _atom_site_label
 _atom_site_symmetry_multiplicity
 _atom_site_fract_x
 _atom_site_fract_y
 _atom_site_fract_z
 _atom_site_fract_occupancy
 Cl  Cl1  1  0.86000  0.86000  0.82062  1
 Cl  Cl2  1  0.14000  0.14000  0.17938  1
 Cl  Cl3  1  0.85992  0.85992  0.32062  1
 Cl  Cl4  1  0.14008  0.14008  0.67938  1
 Pt  Pt1  1  0.50004  0.50004  0.75004  1
 Pt  Pt2  1  0.49996  0.49996  0.24996  1
