CIF file written using JARVIS-Tools package.
data_Ca3Al2As4
_symmetry_space_group_name_H-M  'C2/c'
_cell_length_a       8.29192
_cell_length_b       7.78303
_cell_length_c       7.78303
_cell_angle_alpha    62.886
_cell_angle_beta     86.8428
_cell_angle_gamma    86.8429

_symmetry_Int_Tables_number  15
_chemical_formula_structural  Ca3Al2As4
_chemical_formula_sum  Ca6Al4As8
_cell_volume  446.1550567468037
_cell_formula_units_Z  2
loop_
  _symmetry_equiv_pos_site_id
 _symmetry_equiv_pos_as_xyz
 1  'x, y, z'
loop_
 _atom_site_type_symbol
 _atom_site_label
 _atom_site_symmetry_multiplicity
 _atom_site_fract_x
 _atom_site_fract_y
 _atom_site_fract_z
 _atom_site_fract_occupancy
 Al  Al1  1  0.04383  0.41672  0.19251  1
 Al  Al2  1  0.45617  0.80749  0.58328  1
 Al  Al3  1  0.54383  0.19251  0.41672  1
 Al  Al4  1  0.95617  0.58328  0.80749  1
 As  As1  1  0.96119  0.77156  0.00496  1
 As  As2  1  0.33007  0.44237  0.26168  1
 As  As3  1  0.16993  0.73832  0.55763  1
 As  As4  1  0.83007  0.26168  0.44237  1
 As  As5  1  0.66993  0.55763  0.73832  1
 As  As6  1  0.03881  0.22844  -0.00496  1
 As  As7  1  0.46119  0.00496  0.77156  1
 As  As8  1  0.53881  -0.00496  0.22844  1
 Ca  Ca1  1  0.86464  0.90910  0.36030  1
 Ca  Ca2  1  0.75000  0.15205  0.84795  1
 Ca  Ca3  1  0.13536  0.09090  0.63970  1
 Ca  Ca4  1  0.36464  0.36030  0.90910  1
 Ca  Ca5  1  0.63536  0.63970  0.09090  1
 Ca  Ca6  1  0.25000  0.84795  0.15205  1
