CIF file written using JARVIS-Tools package.
data_Li2Fe4O3F8
_symmetry_space_group_name_H-M  'P-1'
_cell_length_a       4.97729
_cell_length_b       6.43668
_cell_length_c       6.73114
_cell_angle_alpha    109.932
_cell_angle_beta     105.949
_cell_angle_gamma    96.8597

_symmetry_Int_Tables_number  2
_chemical_formula_structural  Li2Fe4O3F8
_chemical_formula_sum  Li2Fe4O3F8
_cell_volume  189.42958688209228
_cell_formula_units_Z  1
loop_
  _symmetry_equiv_pos_site_id
 _symmetry_equiv_pos_as_xyz
 1  'x, y, z'
loop_
 _atom_site_type_symbol
 _atom_site_label
 _atom_site_symmetry_multiplicity
 _atom_site_fract_x
 _atom_site_fract_y
 _atom_site_fract_z
 _atom_site_fract_occupancy
 F  F1  1  0.52604  0.88620  0.19099  1
 F  F2  1  0.21017  0.63162  0.74938  1
 F  F3  1  0.78983  0.36838  0.25062  1
 F  F4  1  0.37928  0.28596  0.50051  1
 F  F5  1  0.62072  0.71404  0.49949  1
 F  F6  1  0.05046  0.79670  0.34412  1
 F  F7  1  0.47396  0.11380  0.80901  1
 F  F8  1  0.94954  0.20330  0.65588  1
 Fe  Fe1  1  0.90827  0.24851  0.96967  1
 Fe  Fe2  1  0.34549  0.37486  0.78007  1
 Fe  Fe3  1  0.65451  0.62514  0.21993  1
 Fe  Fe4  1  0.09173  0.75149  0.03033  1
 Li  Li1  1  0.66993  0.19552  0.40059  1
 Li  Li2  1  0.33007  0.80448  0.59941  1
 O  O1  1  0.72900  0.53033  0.94360  1
 O  O2  1  0.27100  0.46967  0.05640  1
 O  O3  1  0.00000  0.00000  0.00000  1
