CIF file written using JARVIS-Tools package.
data_Zr3Sn
_symmetry_space_group_name_H-M  'P6_3/mmc'
_cell_length_a       6.28684
_cell_length_b       6.28684
_cell_length_c       5.19396
_cell_angle_alpha    90
_cell_angle_beta     90
_cell_angle_gamma    120

_symmetry_Int_Tables_number  194
_chemical_formula_structural  Zr3Sn
_chemical_formula_sum  Zr6Sn2
_cell_volume  177.78437982534007
_cell_formula_units_Z  2
loop_
  _symmetry_equiv_pos_site_id
 _symmetry_equiv_pos_as_xyz
 1  'x, y, z'
loop_
 _atom_site_type_symbol
 _atom_site_label
 _atom_site_symmetry_multiplicity
 _atom_site_fract_x
 _atom_site_fract_y
 _atom_site_fract_z
 _atom_site_fract_occupancy
 Sn  Sn1  1  0.33333  0.66667  0.75000  1
 Sn  Sn2  1  0.66667  0.33333  0.25000  1
 Zr  Zr1  1  0.16716  0.33433  0.25000  1
 Zr  Zr2  1  0.66567  0.83284  0.25000  1
 Zr  Zr3  1  0.16716  0.83284  0.25000  1
 Zr  Zr4  1  0.83284  0.66567  0.75000  1
 Zr  Zr5  1  0.33433  0.16716  0.75000  1
 Zr  Zr6  1  0.83284  0.16716  0.75000  1
