CIF file written using JARVIS-Tools package.
data_MgF2
_symmetry_space_group_name_H-M  'Pa-3'
_cell_length_a       4.9754
_cell_length_b       4.9754
_cell_length_c       4.9754
_cell_angle_alpha    90
_cell_angle_beta     90
_cell_angle_gamma    90

_symmetry_Int_Tables_number  205
_chemical_formula_structural  MgF2
_chemical_formula_sum  Mg4F8
_cell_volume  123.16406427462209
_cell_formula_units_Z  4
loop_
  _symmetry_equiv_pos_site_id
 _symmetry_equiv_pos_as_xyz
 1  'x, y, z'
loop_
 _atom_site_type_symbol
 _atom_site_label
 _atom_site_symmetry_multiplicity
 _atom_site_fract_x
 _atom_site_fract_y
 _atom_site_fract_z
 _atom_site_fract_occupancy
 F  F1  1  0.34102  0.15898  0.84102  1
 F  F2  1  0.15898  0.84102  0.34102  1
 F  F3  1  0.84102  0.34102  0.15898  1
 F  F4  1  0.65898  0.65898  0.65898  1
 F  F5  1  0.34102  0.34102  0.34102  1
 F  F6  1  0.15898  0.65898  0.84102  1
 F  F7  1  0.84102  0.15898  0.65898  1
 F  F8  1  0.65898  0.84102  0.15898  1
 Mg  Mg1  1  0.00000  0.50000  0.50000  1
 Mg  Mg2  1  0.50000  0.50000  0.00000  1
 Mg  Mg3  1  0.50000  0.00000  0.50000  1
 Mg  Mg4  1  0.00000  0.00000  0.00000  1
