CIF file written using JARVIS-Tools package.
data_Si
_symmetry_space_group_name_H-M  'R-3'
_cell_length_a       5.81806
_cell_length_b       5.81806
_cell_length_c       5.81806
_cell_angle_alpha    109.86
_cell_angle_beta     109.86
_cell_angle_gamma    109.86

_symmetry_Int_Tables_number  148
_chemical_formula_structural  Si
_chemical_formula_sum  Si8
_cell_volume  149.38323216588697
_cell_formula_units_Z  8
loop_
  _symmetry_equiv_pos_site_id
 _symmetry_equiv_pos_as_xyz
 1  'x, y, z'
loop_
 _atom_site_type_symbol
 _atom_site_label
 _atom_site_symmetry_multiplicity
 _atom_site_fract_x
 _atom_site_fract_y
 _atom_site_fract_z
 _atom_site_fract_occupancy
 Si  Si1  1  0.01861  0.71642  0.52051  1
 Si  Si2  1  0.98139  0.28358  0.47949  1
 Si  Si3  1  0.71363  0.71363  0.71363  1
 Si  Si4  1  0.28358  0.47949  0.98139  1
 Si  Si5  1  0.47949  0.98139  0.28358  1
 Si  Si6  1  0.71642  0.52051  0.01861  1
 Si  Si7  1  0.28637  0.28637  0.28637  1
 Si  Si8  1  0.52051  0.01861  0.71642  1
