CIF file written using JARVIS-Tools package.
data_Nd3Sb5O12
_symmetry_space_group_name_H-M  'I-43m'
_cell_length_a       9.59481
_cell_length_b       9.5948
_cell_length_c       9.5948
_cell_angle_alpha    109.471
_cell_angle_beta     109.471
_cell_angle_gamma    109.471

_symmetry_Int_Tables_number  217
_chemical_formula_structural  Nd3Sb5O12
_chemical_formula_sum  Nd6Sb0O24
_cell_volume  679.9642547107311
_cell_formula_units_Z  2
loop_
  _symmetry_equiv_pos_site_id
 _symmetry_equiv_pos_as_xyz
 1  'x, y, z'
loop_
 _atom_site_type_symbol
 _atom_site_label
 _atom_site_symmetry_multiplicity
 _atom_site_fract_x
 _atom_site_fract_y
 _atom_site_fract_z
 _atom_site_fract_occupancy
 Nd  Nd1  1  0.50000  0.25000  0.75000  1
 Nd  Nd2  1  0.50000  0.75000  0.25000  1
 Nd  Nd3  1  0.25000  0.75000  0.50000  1
 Nd  Nd4  1  0.75000  0.50000  0.25000  1
 Nd  Nd5  1  0.25000  0.50000  0.75000  1
 Nd  Nd6  1  0.75000  0.25000  0.50000  1
 O  O1  1  0.19761  -0.00000  0.47343  1
 O  O2  1  0.19761  0.47343  -0.00000  1
 O  O3  1  -0.00000  0.19761  0.47343  1
 O  O4  1  -0.00000  0.47343  0.19761  1
 O  O5  1  0.47343  0.19761  -0.00000  1
 O  O6  1  0.29020  0.80162  0.29020  1
 O  O7  1  0.80239  0.80239  0.27581  1
 O  O8  1  0.80162  0.29020  0.29020  1
 O  O9  1  0.72419  0.52657  0.52657  1
 O  O10  1  0.52657  0.72419  0.52657  1
 O  O11  1  0.48858  0.48858  0.19838  1
 O  O12  1  0.48858  0.19838  0.48858  1
 O  O13  1  0.70980  0.00000  0.51142  1
 O  O14  1  0.19838  0.48858  0.48858  1
 O  O15  1  0.47343  -0.00000  0.19761  1
 O  O16  1  0.52657  0.52657  0.72419  1
 O  O17  1  0.00000  0.51142  0.70980  1
 O  O18  1  0.27581  0.80239  0.80239  1
 O  O19  1  0.51142  0.00000  0.70980  1
 O  O20  1  0.51142  0.70980  -0.00000  1
 O  O21  1  0.29020  0.29020  0.80162  1
 O  O22  1  -0.00000  0.70980  0.51142  1
 O  O23  1  0.80239  0.27581  0.80239  1
 O  O24  1  0.70980  0.51142  0.00000  1
 Sb  Sb1  1  0.27813  0.00000  0.27813  1
 Sb  Sb2  1  0.00000  0.00000  0.51011  1
 Sb  Sb3  1  -0.00000  0.51011  0.00000  1
 Sb  Sb4  1  0.48989  0.48989  0.48989  1
 Sb  Sb5  1  0.72187  -0.00000  0.72187  1
 Sb  Sb6  1  0.00000  0.27813  0.27813  1
 Sb  Sb7  1  -0.00000  0.72187  0.72187  1
 Sb  Sb8  1  0.72187  0.72187  -0.00000  1
 Sb  Sb9  1  0.27813  0.27813  0.00000  1
 Sb  Sb10  1  0.51011  0.00000  0.00000  1
