CIF file written using JARVIS-Tools package.
data_CaNi2O4
_symmetry_space_group_name_H-M  'Cmcm'
_cell_length_a       3.06904
_cell_length_b       5.04588
_cell_length_c       9.50817
_cell_angle_alpha    90
_cell_angle_beta     90
_cell_angle_gamma    107.705

_symmetry_Int_Tables_number  63
_chemical_formula_structural  CaNi2O4
_chemical_formula_sum  Ca2Ni4O8
_cell_volume  140.2698531937872
_cell_formula_units_Z  2
loop_
  _symmetry_equiv_pos_site_id
 _symmetry_equiv_pos_as_xyz
 1  'x, y, z'
loop_
 _atom_site_type_symbol
 _atom_site_label
 _atom_site_symmetry_multiplicity
 _atom_site_fract_x
 _atom_site_fract_y
 _atom_site_fract_z
 _atom_site_fract_occupancy
 Ca  Ca1  1  0.39353  0.78706  0.75000  1
 Ca  Ca2  1  0.60647  0.21294  0.25000  1
 Ni  Ni1  1  0.86055  0.72110  0.06980  1
 Ni  Ni2  1  0.13945  0.27890  0.93020  1
 Ni  Ni3  1  0.86055  0.72110  0.43020  1
 Ni  Ni4  1  0.13945  0.27890  0.56980  1
 O  O1  1  0.23412  0.46824  0.39534  1
 O  O2  1  0.76588  0.53176  0.60466  1
 O  O3  1  0.76588  0.53176  0.89534  1
 O  O4  1  0.23412  0.46824  0.10466  1
 O  O5  1  0.93767  0.87535  0.25000  1
 O  O6  1  0.06233  0.12465  0.75000  1
 O  O7  1  0.50000  0.00000  0.00000  1
 O  O8  1  0.50000  0.00000  0.50000  1
