CIF file written using JARVIS-Tools package.
data_AlW3C4
_symmetry_space_group_name_H-M  'Pmm2'
_cell_length_a       2.83213
_cell_length_b       2.94695
_cell_length_c       10.1545
_cell_angle_alpha    90
_cell_angle_beta     90
_cell_angle_gamma    90

_symmetry_Int_Tables_number  25
_chemical_formula_structural  AlW3C4
_chemical_formula_sum  AlW3C4
_cell_volume  84.75122268896753
_cell_formula_units_Z  1
loop_
  _symmetry_equiv_pos_site_id
 _symmetry_equiv_pos_as_xyz
 1  'x, y, z'
loop_
 _atom_site_type_symbol
 _atom_site_label
 _atom_site_symmetry_multiplicity
 _atom_site_fract_x
 _atom_site_fract_y
 _atom_site_fract_z
 _atom_site_fract_occupancy
 Al  Al1  1  0.00000  0.00000  0.73920  1
 C  C1  1  0.50000  0.50000  0.16802  1
 C  C2  1  0.50000  0.00000  0.41768  1
 C  C3  1  0.50000  0.50000  0.66161  1
 C  C4  1  0.50000  0.00000  0.92496  1
 W  W1  1  0.00000  0.50000  0.00217  1
 W  W2  1  0.00000  0.00000  0.25145  1
 W  W3  1  0.00000  0.50000  0.50162  1
