CIF file written using JARVIS-Tools package.
data_LiVF4
_symmetry_space_group_name_H-M  'P-1'
_cell_length_a       5.13084
_cell_length_b       4.89757
_cell_length_c       5.12465
_cell_angle_alpha    88.9232
_cell_angle_beta     103.231
_cell_angle_gamma    90.6957

_symmetry_Int_Tables_number  2
_chemical_formula_structural  LiVF4
_chemical_formula_sum  Li2V2F8
_cell_volume  125.33093361226227
_cell_formula_units_Z  2
loop_
  _symmetry_equiv_pos_site_id
 _symmetry_equiv_pos_as_xyz
 1  'x, y, z'
loop_
 _atom_site_type_symbol
 _atom_site_label
 _atom_site_symmetry_multiplicity
 _atom_site_fract_x
 _atom_site_fract_y
 _atom_site_fract_z
 _atom_site_fract_occupancy
 F  F1  1  0.39049  0.78849  0.52575  1
 F  F2  1  0.97821  0.78721  0.10905  1
 F  F3  1  0.48205  0.75744  0.02421  1
 F  F4  1  0.89242  0.71605  0.60726  1
 F  F5  1  0.10758  0.28395  0.39274  1
 F  F6  1  0.51795  0.24256  0.97579  1
 F  F7  1  0.02179  0.21279  0.89095  1
 F  F8  1  0.60951  0.21151  0.47425  1
 Li  Li1  1  0.21383  0.49901  0.71344  1
 Li  Li2  1  0.78617  0.50099  0.28656  1
 V  V1  1  0.70734  0.95889  0.79290  1
 V  V2  1  0.29266  0.04111  0.20710  1
