CIF file written using JARVIS-Tools package.
data_YAl2Ge2
_symmetry_space_group_name_H-M  'P-3m1'
_cell_length_a       4.28042
_cell_length_b       4.28042
_cell_length_c       6.63526
_cell_angle_alpha    90
_cell_angle_beta     90
_cell_angle_gamma    120

_symmetry_Int_Tables_number  164
_chemical_formula_structural  YAl2Ge2
_chemical_formula_sum  YAl2Ge2
_cell_volume  105.28353933866454
_cell_formula_units_Z  1
loop_
  _symmetry_equiv_pos_site_id
 _symmetry_equiv_pos_as_xyz
 1  'x, y, z'
loop_
 _atom_site_type_symbol
 _atom_site_label
 _atom_site_symmetry_multiplicity
 _atom_site_fract_x
 _atom_site_fract_y
 _atom_site_fract_z
 _atom_site_fract_occupancy
 Al  Al1  1  0.66667  0.33333  0.35387  1
 Al  Al2  1  0.33333  0.66667  0.64613  1
 Ge  Ge1  1  0.66667  0.33333  0.74196  1
 Ge  Ge2  1  0.33333  0.66667  0.25804  1
 Y  Y1  1  0.00000  0.00000  0.00000  1
