CIF file written using JARVIS-Tools package.
data_K3UF6
_symmetry_space_group_name_H-M  'I4/mmm'
_cell_length_a       6.90196
_cell_length_b       6.90196
_cell_length_c       6.90197
_cell_angle_alpha    117.704
_cell_angle_beta     117.704
_cell_angle_gamma    94.0248

_symmetry_Int_Tables_number  139
_chemical_formula_structural  K3UF6
_chemical_formula_sum  K3UF6
_cell_volume  239.91674712323447
_cell_formula_units_Z  1
loop_
  _symmetry_equiv_pos_site_id
 _symmetry_equiv_pos_as_xyz
 1  'x, y, z'
loop_
 _atom_site_type_symbol
 _atom_site_label
 _atom_site_symmetry_multiplicity
 _atom_site_fract_x
 _atom_site_fract_y
 _atom_site_fract_z
 _atom_site_fract_occupancy
 F  F1  1  -0.00000  0.31178  0.31178  1
 F  F2  1  0.00000  0.68822  0.68822  1
 F  F3  1  0.31178  -0.00000  0.31178  1
 F  F4  1  0.68822  0.00000  0.68822  1
 F  F5  1  0.24077  0.24077  -0.00000  1
 F  F6  1  0.75923  0.75923  0.00000  1
 K  K1  1  0.75000  0.25000  0.50000  1
 K  K2  1  0.25000  0.75000  0.50000  1
 K  K3  1  0.50000  0.50000  -0.00000  1
 U  U1  1  0.00000  0.00000  0.00000  1
