CIF file written using JARVIS-Tools package.
data_Ca3P2O8
_symmetry_space_group_name_H-M  'R-3m'
_cell_length_a       6.93117
_cell_length_b       6.93117
_cell_length_c       6.93117
_cell_angle_alpha    44.7175
_cell_angle_beta     44.7175
_cell_angle_gamma    44.7175

_symmetry_Int_Tables_number  166
_chemical_formula_structural  Ca3P2O8
_chemical_formula_sum  Ca3P2O8
_cell_volume  149.95248102649342
_cell_formula_units_Z  1
loop_
  _symmetry_equiv_pos_site_id
 _symmetry_equiv_pos_as_xyz
 1  'x, y, z'
loop_
 _atom_site_type_symbol
 _atom_site_label
 _atom_site_symmetry_multiplicity
 _atom_site_fract_x
 _atom_site_fract_y
 _atom_site_fract_z
 _atom_site_fract_occupancy
 Ca  Ca1  1  0.00000  0.00000  0.00000  1
 Ca  Ca2  1  0.20266  0.20266  0.20266  1
 Ca  Ca3  1  0.79734  0.79734  0.79734  1
 O  O1  1  0.72744  0.72744  0.24617  1
 O  O2  1  0.72744  0.24617  0.72744  1
 O  O3  1  0.24617  0.72744  0.72744  1
 O  O4  1  0.75383  0.27256  0.27256  1
 O  O5  1  0.27256  0.27256  0.75383  1
 O  O6  1  0.32290  0.32290  0.32290  1
 O  O7  1  0.67710  0.67710  0.67710  1
 O  O8  1  0.27256  0.75383  0.27256  1
 P  P1  1  0.40498  0.40498  0.40498  1
 P  P2  1  0.59502  0.59502  0.59502  1
