CIF file written using JARVIS-Tools package.
data_La2CdAu2
_symmetry_space_group_name_H-M  'P4/mbm'
_cell_length_a       8.20071
_cell_length_b       8.20071
_cell_length_c       3.98674
_cell_angle_alpha    90
_cell_angle_beta     90
_cell_angle_gamma    90

_symmetry_Int_Tables_number  127
_chemical_formula_structural  La2CdAu2
_chemical_formula_sum  La4Cd2Au4
_cell_volume  268.1147648620838
_cell_formula_units_Z  2
loop_
  _symmetry_equiv_pos_site_id
 _symmetry_equiv_pos_as_xyz
 1  'x, y, z'
loop_
 _atom_site_type_symbol
 _atom_site_label
 _atom_site_symmetry_multiplicity
 _atom_site_fract_x
 _atom_site_fract_y
 _atom_site_fract_z
 _atom_site_fract_occupancy
 Au  Au1  1  0.12827  0.62827  0.00000  1
 Au  Au2  1  0.87173  0.37173  0.00000  1
 Au  Au3  1  0.62827  0.87173  0.00000  1
 Au  Au4  1  0.37173  0.12827  0.00000  1
 Cd  Cd1  1  0.00000  0.00000  0.00000  1
 Cd  Cd2  1  0.50000  0.50000  0.00000  1
 La  La1  1  0.67235  0.17235  0.50000  1
 La  La2  1  0.32765  0.82765  0.50000  1
 La  La3  1  0.17235  0.32765  0.50000  1
 La  La4  1  0.82765  0.67235  0.50000  1
