CIF file written using JARVIS-Tools package.
data_NiBiO3
_symmetry_space_group_name_H-M  'R3c'
_cell_length_a       5.43305
_cell_length_b       5.43305
_cell_length_c       5.43306
_cell_angle_alpha    60.6914
_cell_angle_beta     60.6913
_cell_angle_gamma    60.6915

_symmetry_Int_Tables_number  161
_chemical_formula_structural  NiBiO3
_chemical_formula_sum  Ni2Bi2O6
_cell_volume  115.17085826804451
_cell_formula_units_Z  2
loop_
  _symmetry_equiv_pos_site_id
 _symmetry_equiv_pos_as_xyz
 1  'x, y, z'
loop_
 _atom_site_type_symbol
 _atom_site_label
 _atom_site_symmetry_multiplicity
 _atom_site_fract_x
 _atom_site_fract_y
 _atom_site_fract_z
 _atom_site_fract_occupancy
 Bi  Bi1  1  0.27706  0.27706  0.27706  1
 Bi  Bi2  1  0.77708  0.77707  0.77707  1
 Ni  Ni1  1  0.00781  0.00781  0.00781  1
 Ni  Ni2  1  0.50781  0.50781  0.50781  1
 O  O1  1  0.23200  0.82199  0.68963  1
 O  O2  1  0.82199  0.68964  0.23200  1
 O  O3  1  0.68963  0.23200  0.82199  1
 O  O4  1  0.18963  0.32200  0.73199  1
 O  O5  1  0.73199  0.18963  0.32200  1
 O  O6  1  0.32200  0.73199  0.18963  1
