CIF file written using JARVIS-Tools package.
data_AuO2F6
_symmetry_space_group_name_H-M  'P-1'
_cell_length_a       4.24243
_cell_length_b       5.78465
_cell_length_c       5.48529
_cell_angle_alpha    76.2241
_cell_angle_beta     99.684
_cell_angle_gamma    109.177

_symmetry_Int_Tables_number  2
_chemical_formula_structural  AuO2F6
_chemical_formula_sum  AuO2F6
_cell_volume  122.89174375802565
_cell_formula_units_Z  1
loop_
  _symmetry_equiv_pos_site_id
 _symmetry_equiv_pos_as_xyz
 1  'x, y, z'
loop_
 _atom_site_type_symbol
 _atom_site_label
 _atom_site_symmetry_multiplicity
 _atom_site_fract_x
 _atom_site_fract_y
 _atom_site_fract_z
 _atom_site_fract_occupancy
 Au  Au1  1  0.00372  0.00818  0.99267  1
 F  F1  1  0.41671  0.24861  0.87242  1
 F  F2  1  0.21164  0.99856  0.33549  1
 F  F3  1  0.98596  0.44009  0.26942  1
 F  F4  1  0.59070  0.76774  0.11291  1
 F  F5  1  0.79581  0.01782  0.64984  1
 F  F6  1  0.02177  0.57651  0.71590  1
 O  O1  1  0.33126  0.62794  0.63947  1
 O  O2  1  0.67643  0.38854  0.34586  1
