CIF file written using JARVIS-Tools package.
data_TiFeO3
_symmetry_space_group_name_H-M  'Pnma'
_cell_length_a       5.15485
_cell_length_b       5.24277
_cell_length_c       7.49342
_cell_angle_alpha    90
_cell_angle_beta     90
_cell_angle_gamma    90

_symmetry_Int_Tables_number  62
_chemical_formula_structural  TiFeO3
_chemical_formula_sum  Ti4Fe4O2
_cell_volume  202.51517472818276
_cell_formula_units_Z  4
loop_
  _symmetry_equiv_pos_site_id
 _symmetry_equiv_pos_as_xyz
 1  'x, y, z'
loop_
 _atom_site_type_symbol
 _atom_site_label
 _atom_site_symmetry_multiplicity
 _atom_site_fract_x
 _atom_site_fract_y
 _atom_site_fract_z
 _atom_site_fract_occupancy
 Fe  Fe1  1  0.99156  0.95574  0.75000  1
 Fe  Fe2  1  0.49156  0.54426  0.25000  1
 Fe  Fe3  1  0.50844  0.45574  0.75000  1
 Fe  Fe4  1  0.00844  0.04426  0.25000  1
 O  O1  1  0.66921  0.32403  0.06322  1
 O  O2  1  0.83079  0.82403  0.43678  1
 O  O3  1  0.88196  0.57154  0.75000  1
 O  O4  1  0.83079  0.82403  0.06322  1
 O  O5  1  0.33079  0.67597  0.93678  1
 O  O6  1  0.16921  0.17597  0.56322  1
 O  O7  1  0.61804  0.07154  0.75000  1
 O  O8  1  0.66921  0.32403  0.43678  1
 O  O9  1  0.33079  0.67597  0.56322  1
 O  O10  1  0.11804  0.42846  0.25000  1
 O  O11  1  0.16921  0.17597  0.93678  1
 O  O12  1  0.38196  0.92846  0.25000  1
 Ti  Ti1  1  0.50000  0.00000  0.50000  1
 Ti  Ti2  1  0.00000  0.50000  0.50000  1
 Ti  Ti3  1  0.00000  0.50000  0.00000  1
 Ti  Ti4  1  0.50000  0.00000  0.00000  1
