CIF file written using JARVIS-Tools package.
data_GeO2
_symmetry_space_group_name_H-M  'Pa-3'
_cell_length_a       4.76191
_cell_length_b       4.76191
_cell_length_c       4.76191
_cell_angle_alpha    90
_cell_angle_beta     90
_cell_angle_gamma    90

_symmetry_Int_Tables_number  205
_chemical_formula_structural  GeO2
_chemical_formula_sum  Ge4O8
_cell_volume  107.9798705559645
_cell_formula_units_Z  4
loop_
  _symmetry_equiv_pos_site_id
 _symmetry_equiv_pos_as_xyz
 1  'x, y, z'
loop_
 _atom_site_type_symbol
 _atom_site_label
 _atom_site_symmetry_multiplicity
 _atom_site_fract_x
 _atom_site_fract_y
 _atom_site_fract_z
 _atom_site_fract_occupancy
 Ge  Ge1  1  0.00000  0.50000  0.50000  1
 Ge  Ge2  1  0.50000  0.50000  0.00000  1
 Ge  Ge3  1  0.50000  0.00000  0.50000  1
 Ge  Ge4  1  0.00000  0.00000  0.00000  1
 O  O1  1  0.34379  0.15621  0.84379  1
 O  O2  1  0.15621  0.84379  0.34379  1
 O  O3  1  0.84379  0.34379  0.15621  1
 O  O4  1  0.65621  0.65621  0.65621  1
 O  O5  1  0.34379  0.34379  0.34379  1
 O  O6  1  0.15621  0.65621  0.84379  1
 O  O7  1  0.84379  0.15621  0.65621  1
 O  O8  1  0.65621  0.84379  0.15621  1
