CIF file written using JARVIS-Tools package.
data_RbBa4Sb3O
_symmetry_space_group_name_H-M  'I4/mcm'
_cell_length_a       8.99072
_cell_length_b       8.99073
_cell_length_c       10.4467
_cell_angle_alpha    115.487
_cell_angle_beta     115.487
_cell_angle_gamma    90

_symmetry_Int_Tables_number  140
_chemical_formula_structural  RbBa4Sb3O
_chemical_formula_sum  Rb2Ba8Sb6O2
_cell_volume  670.0742680080642
_cell_formula_units_Z  2
loop_
  _symmetry_equiv_pos_site_id
 _symmetry_equiv_pos_as_xyz
 1  'x, y, z'
loop_
 _atom_site_type_symbol
 _atom_site_label
 _atom_site_symmetry_multiplicity
 _atom_site_fract_x
 _atom_site_fract_y
 _atom_site_fract_z
 _atom_site_fract_occupancy
 Ba  Ba1  1  0.50457  0.68713  0.69170  1
 Ba  Ba2  1  0.00457  0.50457  0.69170  1
 Ba  Ba3  1  0.31287  0.81287  0.30830  1
 Ba  Ba4  1  0.68713  0.18713  0.69170  1
 Ba  Ba5  1  0.49543  0.31287  0.30830  1
 Ba  Ba6  1  0.99543  0.49543  0.30830  1
 Ba  Ba7  1  0.81287  0.99543  0.30830  1
 Ba  Ba8  1  0.18713  0.00457  0.69170  1
 O  O1  1  0.25000  0.75000  0.50000  1
 O  O2  1  0.75000  0.25000  0.50000  1
 Rb  Rb1  1  0.50000  0.50000  -0.00000  1
 Rb  Rb2  1  0.00000  0.00000  0.00000  1
 Sb  Sb1  1  0.88497  0.61503  0.00000  1
 Sb  Sb2  1  0.61503  0.11503  0.00000  1
 Sb  Sb3  1  0.11503  0.38497  -0.00000  1
 Sb  Sb4  1  0.38497  0.88497  -0.00000  1
 Sb  Sb5  1  0.25000  0.25000  0.50000  1
 Sb  Sb6  1  0.75000  0.75000  0.50000  1
