CIF file written using JARVIS-Tools package.
data_CoNiTe4
_symmetry_space_group_name_H-M  'P2/m'
_cell_length_a       3.84232
_cell_length_b       5.43611
_cell_length_c       6.67422
_cell_angle_alpha    89.7092
_cell_angle_beta     90
_cell_angle_gamma    90

_symmetry_Int_Tables_number  10
_chemical_formula_structural  CoNiTe4
_chemical_formula_sum  CoNiTe4
_cell_volume  139.40462023219723
_cell_formula_units_Z  1
loop_
  _symmetry_equiv_pos_site_id
 _symmetry_equiv_pos_as_xyz
 1  'x, y, z'
loop_
 _atom_site_type_symbol
 _atom_site_label
 _atom_site_symmetry_multiplicity
 _atom_site_fract_x
 _atom_site_fract_y
 _atom_site_fract_z
 _atom_site_fract_occupancy
 Co  Co1  1  0.00000  0.00000  0.00000  1
 Ni  Ni1  1  0.50000  0.00000  0.50000  1
 Te  Te1  1  0.00000  0.76080  0.32949  1
 Te  Te2  1  0.50000  0.75451  0.84110  1
 Te  Te3  1  0.50000  0.24549  0.15890  1
 Te  Te4  1  0.00000  0.23920  0.67051  1
