CIF file written using JARVIS-Tools package.
data_K2Zn3SiAs4
_symmetry_space_group_name_H-M  'C222'
_cell_length_a       7.66892
_cell_length_b       7.66892
_cell_length_c       5.74457
_cell_angle_alpha    90
_cell_angle_beta     90
_cell_angle_gamma    135.7

_symmetry_Int_Tables_number  21
_chemical_formula_structural  K2Zn3SiAs4
_chemical_formula_sum  K2Zn3SiAs4
_cell_volume  235.95956966538662
_cell_formula_units_Z  1
loop_
  _symmetry_equiv_pos_site_id
 _symmetry_equiv_pos_as_xyz
 1  'x, y, z'
loop_
 _atom_site_type_symbol
 _atom_site_label
 _atom_site_symmetry_multiplicity
 _atom_site_fract_x
 _atom_site_fract_y
 _atom_site_fract_z
 _atom_site_fract_occupancy
 As  As1  1  0.65722  0.87477  0.76636  1
 As  As2  1  0.12523  0.34278  0.23364  1
 As  As3  1  0.87477  0.65722  0.23364  1
 As  As4  1  0.34278  0.12523  0.76636  1
 K  K1  1  0.50000  0.00000  0.25507  1
 K  K2  1  0.00000  0.50000  0.74493  1
 Si  Si1  1  0.00000  0.00000  0.00000  1
 Zn  Zn1  1  0.50000  0.50000  0.50000  1
 Zn  Zn2  1  0.50000  0.50000  0.00000  1
 Zn  Zn3  1  0.00000  0.00000  0.50000  1
