CIF file written using JARVIS-Tools package.
data_LiGaCl4
_symmetry_space_group_name_H-M  'P2_1/c'
_cell_length_a       6.99772
_cell_length_b       6.32604
_cell_length_c       12.7799
_cell_angle_alpha    90
_cell_angle_beta     93.0424
_cell_angle_gamma    90

_symmetry_Int_Tables_number  14
_chemical_formula_structural  LiGaCl4
_chemical_formula_sum  Li4Ga4Cl6
_cell_volume  564.9426510925823
_cell_formula_units_Z  4
loop_
  _symmetry_equiv_pos_site_id
 _symmetry_equiv_pos_as_xyz
 1  'x, y, z'
loop_
 _atom_site_type_symbol
 _atom_site_label
 _atom_site_symmetry_multiplicity
 _atom_site_fract_x
 _atom_site_fract_y
 _atom_site_fract_z
 _atom_site_fract_occupancy
 Cl  Cl1  1  0.93401  0.82514  0.81283  1
 Cl  Cl2  1  0.31206  0.17531  0.94494  1
 Cl  Cl3  1  0.68794  0.67531  0.55506  1
 Cl  Cl4  1  0.68794  0.82469  0.05506  1
 Cl  Cl5  1  0.42868  0.68658  0.80620  1
 Cl  Cl6  1  0.18738  0.64366  0.06659  1
 Cl  Cl7  1  0.81262  0.14366  0.43341  1
 Cl  Cl8  1  0.31206  0.32469  0.44494  1
 Cl  Cl9  1  0.18738  0.85634  0.56659  1
 Cl  Cl10  1  0.06599  0.17486  0.18717  1
 Cl  Cl11  1  0.93401  0.67486  0.31283  1
 Cl  Cl12  1  0.57132  0.18658  0.69380  1
 Cl  Cl13  1  0.06599  0.32514  0.68717  1
 Cl  Cl14  1  0.57132  0.31342  0.19380  1
 Cl  Cl15  1  0.42868  0.81342  0.30620  1
 Cl  Cl16  1  0.81262  0.35634  0.93341  1
 Ga  Ga1  1  0.30120  0.32031  0.10046  1
 Ga  Ga2  1  0.69880  0.82031  0.39954  1
 Ga  Ga3  1  0.69880  0.67969  0.89954  1
 Ga  Ga4  1  0.30120  0.17969  0.60046  1
 Li  Li1  1  0.85296  0.98741  0.63269  1
 Li  Li2  1  0.14704  0.48741  0.86731  1
 Li  Li3  1  0.14704  0.01259  0.36731  1
 Li  Li4  1  0.85296  0.51259  0.13269  1
