CIF file written using JARVIS-Tools package.
data_Ce
_symmetry_space_group_name_H-M  'Fm-3m'
_cell_length_a       3.33256
_cell_length_b       3.33229
_cell_length_c       5.77141
_cell_angle_alpha    73.2243
_cell_angle_beta     73.2192
_cell_angle_gamma    59.9973

_symmetry_Int_Tables_number  225
_chemical_formula_structural  Ce
_chemical_formula_sum  Ce2
_cell_volume  52.32963905652102
_cell_formula_units_Z  2
loop_
  _symmetry_equiv_pos_site_id
 _symmetry_equiv_pos_as_xyz
 1  'x, y, z'
loop_
 _atom_site_type_symbol
 _atom_site_label
 _atom_site_symmetry_multiplicity
 _atom_site_fract_x
 _atom_site_fract_y
 _atom_site_fract_z
 _atom_site_fract_occupancy
 Ce  Ce1  1  0.74993  0.25015  0.24999  1
 Ce  Ce2  1  0.25007  0.74985  0.75001  1
