CIF file written using JARVIS-Tools package.
data_KZrSnF7
_symmetry_space_group_name_H-M  'Pmna'
_cell_length_a       5.95833
_cell_length_b       8.43219
_cell_length_c       12.508
_cell_angle_alpha    90
_cell_angle_beta     90
_cell_angle_gamma    90

_symmetry_Int_Tables_number  53
_chemical_formula_structural  KZrSnF7
_chemical_formula_sum  K4Zr4Sn4F28
_cell_volume  628.4256889092459
_cell_formula_units_Z  4
loop_
  _symmetry_equiv_pos_site_id
 _symmetry_equiv_pos_as_xyz
 1  'x, y, z'
loop_
 _atom_site_type_symbol
 _atom_site_label
 _atom_site_symmetry_multiplicity
 _atom_site_fract_x
 _atom_site_fract_y
 _atom_site_fract_z
 _atom_site_fract_occupancy
 F  F1  1  0.50228  0.50000  0.69590  1
 F  F2  1  0.49772  0.00000  0.19590  1
 F  F3  1  0.12511  0.50000  0.08420  1
 F  F4  1  0.87175  0.50000  0.57204  1
 F  F5  1  0.50000  0.35557  0.50000  1
 F  F6  1  0.50000  0.14443  0.00000  1
 F  F7  1  0.15507  0.76615  0.89023  1
 F  F8  1  0.84493  0.76615  0.10977  1
 F  F9  1  0.50000  0.85557  0.00000  1
 F  F10  1  0.15507  0.73385  0.60977  1
 F  F11  1  0.09302  0.00000  0.75944  1
 F  F12  1  0.90698  0.50000  0.25944  1
 F  F13  1  0.12511  0.00000  0.41580  1
 F  F14  1  0.12825  0.00000  0.07204  1
 F  F15  1  0.84493  0.23385  0.10977  1
 F  F16  1  0.84493  0.26615  0.39023  1
 F  F17  1  0.50228  0.00000  0.80410  1
 F  F18  1  0.15507  0.23385  0.89023  1
 F  F19  1  0.12825  0.50000  0.42796  1
 F  F20  1  0.15507  0.26615  0.60977  1
 F  F21  1  0.09302  0.50000  0.74056  1
 F  F22  1  0.50000  0.64443  0.50000  1
 F  F23  1  0.90698  0.00000  0.24056  1
 F  F24  1  0.87489  0.50000  0.91580  1
 F  F25  1  0.84493  0.73385  0.39023  1
 F  F26  1  0.49772  0.50000  0.30410  1
 F  F27  1  0.87489  0.00000  0.58420  1
 F  F28  1  0.87175  0.00000  0.92796  1
 K  K1  1  0.78667  0.25000  0.75000  1
 K  K2  1  0.21333  0.25000  0.25000  1
 K  K3  1  0.21333  0.75000  0.25000  1
 K  K4  1  0.78667  0.75000  0.75000  1
 Sn  Sn1  1  0.75729  0.50000  0.09210  1
 Sn  Sn2  1  0.75729  0.00000  0.40790  1
 Sn  Sn3  1  0.24271  0.00000  0.59210  1
 Sn  Sn4  1  0.24271  0.50000  0.90790  1
 Zr  Zr1  1  0.25025  0.50000  0.58600  1
 Zr  Zr2  1  0.25025  0.00000  0.91400  1
 Zr  Zr3  1  0.74975  0.00000  0.08600  1
 Zr  Zr4  1  0.74975  0.50000  0.41400  1
