CIF file written using JARVIS-Tools package.
data_K5As4
_symmetry_space_group_name_H-M  'C2/m'
_cell_length_a       6.33928
_cell_length_b       6.33928
_cell_length_c       10.4213
_cell_angle_alpha    69.3446
_cell_angle_beta     69.3446
_cell_angle_gamma    48.2587

_symmetry_Int_Tables_number  12
_chemical_formula_structural  K5As4
_chemical_formula_sum  K5As4
_cell_volume  288.2024055576969
_cell_formula_units_Z  1
loop_
  _symmetry_equiv_pos_site_id
 _symmetry_equiv_pos_as_xyz
 1  'x, y, z'
loop_
 _atom_site_type_symbol
 _atom_site_label
 _atom_site_symmetry_multiplicity
 _atom_site_fract_x
 _atom_site_fract_y
 _atom_site_fract_z
 _atom_site_fract_occupancy
 As  As1  1  0.10205  0.10205  0.88999  1
 As  As2  1  0.90319  0.90319  0.10601  1
 As  As3  1  0.04766  0.04766  0.68350  1
 As  As4  1  0.95762  0.95762  0.31248  1
 K  K1  1  0.39619  0.39619  0.89602  1
 K  K2  1  0.60908  0.60908  0.09999  1
 K  K3  1  0.74974  0.74974  0.66614  1
 K  K4  1  0.25552  0.25552  0.32987  1
 K  K5  1  0.50264  0.50264  0.49799  1
