CIF file written using JARVIS-Tools package.
data_K2ThF6
_symmetry_space_group_name_H-M  'Immm'
_cell_length_a       7.25954
_cell_length_b       7.25953
_cell_length_c       7.25954
_cell_angle_alpha    146.613
_cell_angle_beta     130.449
_cell_angle_gamma    61.0696

_symmetry_Int_Tables_number  71
_chemical_formula_structural  K2ThF6
_chemical_formula_sum  K2ThF6
_cell_volume  158.66947201957888
_cell_formula_units_Z  1
loop_
  _symmetry_equiv_pos_site_id
 _symmetry_equiv_pos_as_xyz
 1  'x, y, z'
loop_
 _atom_site_type_symbol
 _atom_site_label
 _atom_site_symmetry_multiplicity
 _atom_site_fract_x
 _atom_site_fract_y
 _atom_site_fract_z
 _atom_site_fract_occupancy
 F  F1  1  0.79203  0.50000  0.29203  1
 F  F2  1  0.37316  0.14414  0.22902  1
 F  F3  1  0.08488  0.85586  0.22902  1
 F  F4  1  0.20797  0.50000  0.70797  1
 F  F5  1  0.91512  0.14414  0.77098  1
 F  F6  1  0.62684  0.85586  0.77098  1
 K  K1  1  0.67031  0.67031  -0.00000  1
 K  K2  1  0.32969  0.32969  -0.00000  1
 Th  Th1  1  0.00000  0.00000  0.00000  1
