CIF file written using JARVIS-Tools package.
data_Sn3P4O14
_symmetry_space_group_name_H-M  'P-1'
_cell_length_a       5.54572
_cell_length_b       7.15264
_cell_length_c       9.05785
_cell_angle_alpha    85.3654
_cell_angle_beta     83.4688
_cell_angle_gamma    65.7817

_symmetry_Int_Tables_number  2
_chemical_formula_structural  Sn3P4O14
_chemical_formula_sum  Sn3P4O4
_cell_volume  325.3137112453671
_cell_formula_units_Z  1
loop_
  _symmetry_equiv_pos_site_id
 _symmetry_equiv_pos_as_xyz
 1  'x, y, z'
loop_
 _atom_site_type_symbol
 _atom_site_label
 _atom_site_symmetry_multiplicity
 _atom_site_fract_x
 _atom_site_fract_y
 _atom_site_fract_z
 _atom_site_fract_occupancy
 O  O1  1  0.13630  0.34714  0.62976  1
 O  O2  1  0.92536  0.14200  0.79700  1
 O  O3  1  0.62479  0.18369  0.09571  1
 O  O4  1  0.17086  0.18575  0.06525  1
 O  O5  1  0.20273  0.47889  0.16509  1
 O  O6  1  0.07464  0.85800  0.20300  1
 O  O7  1  0.79727  0.52111  0.83491  1
 O  O8  1  0.82914  0.81425  0.93475  1
 O  O9  1  0.65877  0.40890  0.61302  1
 O  O10  1  0.34123  0.59110  0.38698  1
 O  O11  1  0.37521  0.81631  0.90429  1
 O  O12  1  0.34863  0.41032  0.89141  1
 O  O13  1  0.86370  0.65286  0.37024  1
 O  O14  1  0.65137  0.58968  0.10859  1
 P  P1  1  0.34544  0.30790  0.04187  1
 P  P2  1  0.11592  0.65288  0.28456  1
 P  P3  1  0.88408  0.34712  0.71544  1
 P  P4  1  0.65456  0.69210  0.95813  1
 Sn  Sn1  1  0.00000  0.00000  0.00000  1
 Sn  Sn2  1  0.23773  0.60399  0.67202  1
 Sn  Sn3  1  0.76227  0.39601  0.32798  1
