CIF file written using JARVIS-Tools package.
data_ZnCu2GeSe4
_symmetry_space_group_name_H-M  'I-42m'
_cell_length_a       5.64777
_cell_length_b       5.64777
_cell_length_c       6.91978
_cell_angle_alpha    114.085
_cell_angle_beta     114.085
_cell_angle_gamma    90.0001

_symmetry_Int_Tables_number  121
_chemical_formula_structural  ZnCu2GeSe4
_chemical_formula_sum  ZnCu2GeSe4
_cell_volume  180.25376226188888
_cell_formula_units_Z  1
loop_
  _symmetry_equiv_pos_site_id
 _symmetry_equiv_pos_as_xyz
 1  'x, y, z'
loop_
 _atom_site_type_symbol
 _atom_site_label
 _atom_site_symmetry_multiplicity
 _atom_site_fract_x
 _atom_site_fract_y
 _atom_site_fract_z
 _atom_site_fract_occupancy
 Cu  Cu1  1  0.75000  0.25000  0.50000  1
 Cu  Cu2  1  0.25000  0.75000  0.50000  1
 Ge  Ge1  1  0.50000  0.50000  0.00000  1
 Se  Se1  1  0.38338  0.38338  0.25967  1
 Se  Se2  1  0.12371  0.61662  0.74033  1
 Se  Se3  1  0.61662  0.12371  0.74033  1
 Se  Se4  1  0.87629  0.87629  0.25967  1
 Zn  Zn1  1  0.00000  0.00000  0.00000  1
