CIF file written using JARVIS-Tools package.
data_RbAsF6
_symmetry_space_group_name_H-M  'R-3'
_cell_length_a       4.97514
_cell_length_b       4.97514
_cell_length_c       4.97513
_cell_angle_alpha    97.1033
_cell_angle_beta     97.1032
_cell_angle_gamma    97.1033

_symmetry_Int_Tables_number  148
_chemical_formula_structural  RbAsF6
_chemical_formula_sum  RbAsF6
_cell_volume  120.04831661239479
_cell_formula_units_Z  1
loop_
  _symmetry_equiv_pos_site_id
 _symmetry_equiv_pos_as_xyz
 1  'x, y, z'
loop_
 _atom_site_type_symbol
 _atom_site_label
 _atom_site_symmetry_multiplicity
 _atom_site_fract_x
 _atom_site_fract_y
 _atom_site_fract_z
 _atom_site_fract_occupancy
 As  As1  1  0.00000  0.00000  0.00000  1
 F  F1  1  0.19742  0.29572  0.92305  1
 F  F2  1  0.29572  0.92305  0.19742  1
 F  F3  1  0.07695  0.80258  0.70428  1
 F  F4  1  0.70428  0.07695  0.80258  1
 F  F5  1  0.80258  0.70428  0.07695  1
 F  F6  1  0.92305  0.19742  0.29572  1
 Rb  Rb1  1  0.50000  0.50000  0.50000  1
