CIF file written using JARVIS-Tools package.
data_Li2VFeO4
_symmetry_space_group_name_H-M  'I-4m2'
_cell_length_a       4.93815
_cell_length_b       4.93815
_cell_length_c       4.93816
_cell_angle_alpha    132.18
_cell_angle_beta     132.18
_cell_angle_gamma    69.9452

_symmetry_Int_Tables_number  119
_chemical_formula_structural  Li2VFeO4
_chemical_formula_sum  Li2VFeO4
_cell_volume  64.83682878243378
_cell_formula_units_Z  1
loop_
  _symmetry_equiv_pos_site_id
 _symmetry_equiv_pos_as_xyz
 1  'x, y, z'
loop_
 _atom_site_type_symbol
 _atom_site_label
 _atom_site_symmetry_multiplicity
 _atom_site_fract_x
 _atom_site_fract_y
 _atom_site_fract_z
 _atom_site_fract_occupancy
 Fe  Fe1  1  0.75000  0.25000  0.50000  1
 Li  Li1  1  0.25000  0.75000  0.50000  1
 Li  Li2  1  0.50000  0.50000  -0.00000  1
 O  O1  1  0.50576  0.00576  0.50000  1
 O  O2  1  0.23768  0.23768  0.00000  1
 O  O3  1  0.99424  0.49424  0.50000  1
 O  O4  1  0.76232  0.76232  -0.00000  1
 V  V1  1  0.00000  0.00000  0.00000  1
