CIF file written using JARVIS-Tools package.
data_LiCrCo2O6
_symmetry_space_group_name_H-M  'C2'
_cell_length_a       6.1919
_cell_length_b       2.83776
_cell_length_c       5.90243
_cell_angle_alpha    89.9856
_cell_angle_beta     105.894
_cell_angle_gamma    103.257

_symmetry_Int_Tables_number  5
_chemical_formula_structural  LiCrCo2O6
_chemical_formula_sum  LiCrCo2O6
_cell_volume  96.87222066196414
_cell_formula_units_Z  1
loop_
  _symmetry_equiv_pos_site_id
 _symmetry_equiv_pos_as_xyz
 1  'x, y, z'
loop_
 _atom_site_type_symbol
 _atom_site_label
 _atom_site_symmetry_multiplicity
 _atom_site_fract_x
 _atom_site_fract_y
 _atom_site_fract_z
 _atom_site_fract_occupancy
 Co  Co1  1  0.66724  0.30783  0.65716  1
 Co  Co2  1  0.99943  0.97389  0.00952  1
 Cr  Cr1  1  0.33332  0.74823  0.33333  1
 Li  Li1  1  0.33333  0.67187  0.83329  1
 O  O1  1  0.02075  0.48154  0.22781  1
 O  O2  1  0.33772  0.20610  0.56407  1
 O  O3  1  0.32895  0.20190  0.10261  1
 O  O4  1  0.67768  0.81258  0.87356  1
 O  O5  1  0.64590  0.79432  0.43886  1
 O  O6  1  0.98900  0.46841  0.79311  1
