CIF file written using JARVIS-Tools package.
data_PrCdIn
_symmetry_space_group_name_H-M  'P-3m1'
_cell_length_a       4.93903
_cell_length_b       4.93904
_cell_length_c       7.78379
_cell_angle_alpha    90
_cell_angle_beta     90
_cell_angle_gamma    120

_symmetry_Int_Tables_number  164
_chemical_formula_structural  PrCdIn
_chemical_formula_sum  Pr2Cd2In2
_cell_volume  164.43926400268515
_cell_formula_units_Z  2
loop_
  _symmetry_equiv_pos_site_id
 _symmetry_equiv_pos_as_xyz
 1  'x, y, z'
loop_
 _atom_site_type_symbol
 _atom_site_label
 _atom_site_symmetry_multiplicity
 _atom_site_fract_x
 _atom_site_fract_y
 _atom_site_fract_z
 _atom_site_fract_occupancy
 Cd  Cd1  1  0.33333  0.66667  0.47695  1
 Cd  Cd2  1  0.66667  0.33333  0.52305  1
 In  In1  1  0.66667  0.33333  0.94738  1
 In  In2  1  0.33333  0.66667  0.05262  1
 Pr  Pr1  1  0.00000  0.00000  0.26118  1
 Pr  Pr2  1  0.00000  0.00000  0.73882  1
