CIF file written using JARVIS-Tools package.
data_RbMg
_symmetry_space_group_name_H-M  'Amm2'
_cell_length_a       5.32727
_cell_length_b       7.68652
_cell_length_c       10.1002
_cell_angle_alpha    48.9282
_cell_angle_beta     90
_cell_angle_gamma    90

_symmetry_Int_Tables_number  38
_chemical_formula_structural  RbMg
_chemical_formula_sum  Rb3Mg3
_cell_volume  311.7941071293837
_cell_formula_units_Z  3
loop_
  _symmetry_equiv_pos_site_id
 _symmetry_equiv_pos_as_xyz
 1  'x, y, z'
loop_
 _atom_site_type_symbol
 _atom_site_label
 _atom_site_symmetry_multiplicity
 _atom_site_fract_x
 _atom_site_fract_y
 _atom_site_fract_z
 _atom_site_fract_occupancy
 Mg  Mg1  1  0.50000  0.60008  0.34277  1
 Mg  Mg2  1  0.00000  0.33334  0.42228  1
 Mg  Mg3  1  0.50000  0.06659  0.60951  1
 Rb  Rb1  1  0.50000  0.33334  0.10545  1
 Rb  Rb2  1  0.00000  0.71316  0.57008  1
 Rb  Rb3  1  0.00000  0.95351  0.94990  1
