CIF file written using JARVIS-Tools package.
data_VF4
_symmetry_space_group_name_H-M  'Cmce'
_cell_length_a       5.11347
_cell_length_b       5.11346
_cell_length_c       5.32383
_cell_angle_alpha    89.9292
_cell_angle_beta     89.9292
_cell_angle_gamma    62.7103

_symmetry_Int_Tables_number  64
_chemical_formula_structural  VF4
_chemical_formula_sum  V2F8
_cell_volume  123.71135329144184
_cell_formula_units_Z  2
loop_
  _symmetry_equiv_pos_site_id
 _symmetry_equiv_pos_as_xyz
 1  'x, y, z'
loop_
 _atom_site_type_symbol
 _atom_site_label
 _atom_site_symmetry_multiplicity
 _atom_site_fract_x
 _atom_site_fract_y
 _atom_site_fract_z
 _atom_site_fract_occupancy
 F  F1  1  0.79943  0.29903  0.00018  1
 F  F2  1  0.81222  0.68755  0.31228  1
 F  F3  1  0.68755  0.81222  0.81228  1
 F  F4  1  0.70097  0.20057  0.49982  1
 F  F5  1  0.29903  0.79943  0.50018  1
 F  F6  1  0.31245  0.18778  0.18772  1
 F  F7  1  0.18778  0.31245  0.68772  1
 F  F8  1  0.20057  0.70097  -0.00018  1
 V  V1  1  -0.00000  0.50000  0.00000  1
 V  V2  1  0.50000  -0.00000  0.50000  1
