CIF file written using JARVIS-Tools package.
data_KCaP3O9
_symmetry_space_group_name_H-M  'P-6c2'
_cell_length_a       6.82202
_cell_length_b       6.82202
_cell_length_c       10.456
_cell_angle_alpha    90
_cell_angle_beta     90
_cell_angle_gamma    120

_symmetry_Int_Tables_number  188
_chemical_formula_structural  KCaP3O9
_chemical_formula_sum  K2Ca2P6O8
_cell_volume  421.4252215390073
_cell_formula_units_Z  2
loop_
  _symmetry_equiv_pos_site_id
 _symmetry_equiv_pos_as_xyz
 1  'x, y, z'
loop_
 _atom_site_type_symbol
 _atom_site_label
 _atom_site_symmetry_multiplicity
 _atom_site_fract_x
 _atom_site_fract_y
 _atom_site_fract_z
 _atom_site_fract_occupancy
 Ca  Ca1  1  0.33333  0.66667  0.50000  1
 Ca  Ca2  1  0.33333  0.66667  0.00000  1
 K  K1  1  0.66667  0.33333  0.50000  1
 K  K2  1  0.66667  0.33333  0.00000  1
 O  O1  1  0.04856  0.38812  0.37300  1
 O  O2  1  0.61188  0.95144  0.62700  1
 O  O3  1  0.61188  0.66044  0.37300  1
 O  O4  1  0.61188  0.95144  0.87300  1
 O  O5  1  0.61188  0.66044  0.12700  1
 O  O6  1  0.33956  0.95144  0.12700  1
 O  O7  1  0.04856  0.38812  0.12700  1
 O  O8  1  0.33956  0.95144  0.37300  1
 O  O9  1  0.04856  0.66044  0.87300  1
 O  O10  1  0.80339  0.77332  0.75000  1
 O  O11  1  0.96993  0.19661  0.75000  1
 O  O12  1  0.22668  0.19661  0.25000  1
 O  O13  1  0.33956  0.38812  0.87300  1
 O  O14  1  0.96993  0.77332  0.25000  1
 O  O15  1  0.80339  0.03007  0.25000  1
 O  O16  1  0.04856  0.66044  0.62700  1
 O  O17  1  0.22668  0.03007  0.75000  1
 O  O18  1  0.33956  0.38812  0.62700  1
 P  P1  1  0.03567  0.26993  0.25000  1
 P  P2  1  0.73007  0.76574  0.25000  1
 P  P3  1  0.23426  0.96433  0.25000  1
 P  P4  1  0.23426  0.26993  0.75000  1
 P  P5  1  0.03567  0.76574  0.75000  1
 P  P6  1  0.73007  0.96433  0.75000  1
