CIF file written using JARVIS-Tools package.
data_BeH2O2
_symmetry_space_group_name_H-M  'P4_12_12'
_cell_length_a       4.80707
_cell_length_b       4.80634
_cell_length_c       5.85182
_cell_angle_alpha    90
_cell_angle_beta     90
_cell_angle_gamma    90

_symmetry_Int_Tables_number  92
_chemical_formula_structural  BeH2O2
_chemical_formula_sum  Be4H8O8
_cell_volume  135.20277414668456
_cell_formula_units_Z  4
loop_
  _symmetry_equiv_pos_site_id
 _symmetry_equiv_pos_as_xyz
 1  'x, y, z'
loop_
 _atom_site_type_symbol
 _atom_site_label
 _atom_site_symmetry_multiplicity
 _atom_site_fract_x
 _atom_site_fract_y
 _atom_site_fract_z
 _atom_site_fract_occupancy
 Be  Be1  1  0.08064  0.66915  0.87500  1
 Be  Be2  1  0.58064  0.83085  0.12500  1
 Be  Be3  1  0.41936  0.33085  0.37500  1
 Be  Be4  1  0.91936  0.16915  0.62500  1
 H  H1  1  -0.00719  0.42417  0.30322  1
 H  H2  1  0.00719  0.92417  0.19678  1
 H  H3  1  0.49281  0.07583  0.69678  1
 H  H4  1  0.50719  0.57583  0.80322  1
 H  H5  1  0.17468  0.24262  0.94673  1
 H  H6  1  0.32532  0.75738  0.44673  1
 H  H7  1  0.82532  0.74262  0.55327  1
 H  H8  1  0.67468  0.25738  0.05327  1
 O  O1  1  0.52580  0.16894  0.14337  1
 O  O2  1  0.47420  0.66894  0.35663  1
 O  O3  1  0.91860  0.77543  0.10661  1
 O  O4  1  0.41860  0.72457  0.89339  1
 O  O5  1  0.58140  0.22457  0.60661  1
 O  O6  1  0.08140  0.27543  0.39339  1
 O  O7  1  0.02580  0.33106  0.85663  1
 O  O8  1  0.97420  0.83106  0.64337  1
