CIF file written using JARVIS-Tools package.
data_Dy4Mg3Co2
_symmetry_space_group_name_H-M  'P2/m'
_cell_length_a       3.6717
_cell_length_b       7.42169
_cell_length_c       8.10446
_cell_angle_alpha    70.5066
_cell_angle_beta     90
_cell_angle_gamma    90

_symmetry_Int_Tables_number  10
_chemical_formula_structural  Dy4Mg3Co2
_chemical_formula_sum  Dy4Mg3Co2
_cell_volume  208.18980822071836
_cell_formula_units_Z  1
loop_
  _symmetry_equiv_pos_site_id
 _symmetry_equiv_pos_as_xyz
 1  'x, y, z'
loop_
 _atom_site_type_symbol
 _atom_site_label
 _atom_site_symmetry_multiplicity
 _atom_site_fract_x
 _atom_site_fract_y
 _atom_site_fract_z
 _atom_site_fract_occupancy
 Co  Co1  1  0.00000  0.65139  0.39056  1
 Co  Co2  1  0.00000  0.34861  0.60944  1
 Dy  Dy1  1  0.50000  0.90391  0.22557  1
 Dy  Dy2  1  0.50000  0.09609  0.77443  1
 Dy  Dy3  1  0.50000  0.39755  0.32426  1
 Dy  Dy4  1  0.50000  0.60245  0.67574  1
 Mg  Mg1  1  0.00000  0.70640  0.00160  1
 Mg  Mg2  1  0.00000  0.29360  0.99840  1
 Mg  Mg3  1  0.00000  -0.00000  0.50000  1
