CIF file written using JARVIS-Tools package.
data_Li3MnP2O8
_symmetry_space_group_name_H-M  'P2_1/c'
_cell_length_a       4.75984
_cell_length_b       9.05949
_cell_length_c       7.73512
_cell_angle_alpha    90
_cell_angle_beta     123.962
_cell_angle_gamma    90

_symmetry_Int_Tables_number  14
_chemical_formula_structural  Li3MnP2O8
_chemical_formula_sum  Li6Mn2P4O6
_cell_volume  276.65154133119023
_cell_formula_units_Z  2
loop_
  _symmetry_equiv_pos_site_id
 _symmetry_equiv_pos_as_xyz
 1  'x, y, z'
loop_
 _atom_site_type_symbol
 _atom_site_label
 _atom_site_symmetry_multiplicity
 _atom_site_fract_x
 _atom_site_fract_y
 _atom_site_fract_z
 _atom_site_fract_occupancy
 Li  Li1  1  0.33650  0.13126  0.33214  1
 Li  Li2  1  0.00000  0.50000  0.00000  1
 Li  Li3  1  0.66350  0.63126  0.16786  1
 Li  Li4  1  -0.00000  0.00000  0.50000  1
 Li  Li5  1  0.33650  0.36874  0.83214  1
 Li  Li6  1  0.66350  0.86874  0.66786  1
 Mn  Mn1  1  0.50000  0.50000  0.50000  1
 Mn  Mn2  1  0.50000  0.00000  0.00000  1
 O  O1  1  0.75429  0.09264  0.61654  1
 O  O2  1  0.82733  0.62036  0.49234  1
 O  O3  1  0.46560  0.84877  0.16231  1
 O  O4  1  0.87435  0.34521  0.79179  1
 O  O5  1  0.53440  0.34877  0.33769  1
 O  O6  1  0.24571  0.90736  0.38346  1
 O  O7  1  0.12565  0.84521  0.70821  1
 O  O8  1  0.17267  0.12036  0.00766  1
 O  O9  1  0.87435  0.15479  0.29179  1
 O  O10  1  0.82733  0.87964  0.99234  1
 O  O11  1  0.17267  0.37964  0.50766  1
 O  O12  1  0.53440  0.15123  0.83769  1
 O  O13  1  0.24571  0.59264  0.88346  1
 O  O14  1  0.46560  0.65123  0.66231  1
 O  O15  1  0.75429  0.40736  0.11654  1
 O  O16  1  0.12565  0.65479  0.20821  1
 P  P1  1  0.83248  0.17799  0.80781  1
 P  P2  1  0.16752  0.67799  0.69219  1
 P  P3  1  0.83248  0.32201  0.30781  1
 P  P4  1  0.16752  0.82201  0.19219  1
