CIF file written using JARVIS-Tools package.
data_GeI2
_symmetry_space_group_name_H-M  'R-3m'
_cell_length_a       4.26265
_cell_length_b       4.26265
_cell_length_c       20.8893
_cell_angle_alpha    90
_cell_angle_beta     90
_cell_angle_gamma    120

_symmetry_Int_Tables_number  166
_chemical_formula_structural  GeI2
_chemical_formula_sum  Ge3I6
_cell_volume  328.71008424686437
_cell_formula_units_Z  3
loop_
  _symmetry_equiv_pos_site_id
 _symmetry_equiv_pos_as_xyz
 1  'x, y, z'
loop_
 _atom_site_type_symbol
 _atom_site_label
 _atom_site_symmetry_multiplicity
 _atom_site_fract_x
 _atom_site_fract_y
 _atom_site_fract_z
 _atom_site_fract_occupancy
 Ge  Ge1  1  0.00000  0.00000  0.00000  1
 Ge  Ge2  1  0.33333  0.66667  0.33338  1
 Ge  Ge3  1  0.66667  0.33333  0.66662  1
 I  I1  1  1.00000  0.00000  0.24829  1
 I  I2  1  0.00000  1.00000  0.75171  1
 I  I3  1  0.33333  0.66667  0.08510  1
 I  I4  1  0.66667  0.33333  0.91490  1
 I  I5  1  0.33333  0.66667  0.58153  1
 I  I6  1  0.66667  0.33333  0.41847  1
