CIF file written using JARVIS-Tools package.
data_K2Na3TlO4
_symmetry_space_group_name_H-M  'Pnnm'
_cell_length_a       7.75048
_cell_length_b       9.26532
_cell_length_c       9.58355
_cell_angle_alpha    90
_cell_angle_beta     90
_cell_angle_gamma    90

_symmetry_Int_Tables_number  58
_chemical_formula_structural  K2Na3TlO4
_chemical_formula_sum  K8Na2Tl4O6
_cell_volume  688.2021908076667
_cell_formula_units_Z  4
loop_
  _symmetry_equiv_pos_site_id
 _symmetry_equiv_pos_as_xyz
 1  'x, y, z'
loop_
 _atom_site_type_symbol
 _atom_site_label
 _atom_site_symmetry_multiplicity
 _atom_site_fract_x
 _atom_site_fract_y
 _atom_site_fract_z
 _atom_site_fract_occupancy
 K  K1  1  0.24651  0.50000  0.00000  1
 K  K2  1  0.25349  0.00000  0.50000  1
 K  K3  1  0.75349  0.50000  0.00000  1
 K  K4  1  0.74651  0.00000  0.50000  1
 K  K5  1  0.50000  0.26192  0.74975  1
 K  K6  1  0.50000  0.73808  0.25025  1
 K  K7  1  0.00000  0.76192  0.75025  1
 K  K8  1  0.00000  0.23808  0.24975  1
 Na  Na1  1  0.25106  0.51616  0.65213  1
 Na  Na2  1  0.25106  0.48384  0.34787  1
 Na  Na3  1  0.24894  0.01616  0.84787  1
 Na  Na4  1  0.24894  0.98384  0.15213  1
 Na  Na5  1  0.00000  0.24125  0.91456  1
 Na  Na6  1  0.00000  0.75875  0.08544  1
 Na  Na7  1  0.50000  0.74125  0.58544  1
 Na  Na8  1  0.50000  0.25875  0.41456  1
 Na  Na9  1  0.75106  0.98384  0.15213  1
 Na  Na10  1  0.74894  0.48384  0.34787  1
 Na  Na11  1  0.74894  0.51616  0.65213  1
 Na  Na12  1  0.75106  0.01616  0.84787  1
 O  O1  1  0.50000  0.55813  0.77838  1
 O  O2  1  0.50000  0.04530  0.27861  1
 O  O3  1  0.50000  0.95470  0.72139  1
 O  O4  1  0.00000  0.45470  0.77861  1
 O  O5  1  0.25289  0.80160  0.98514  1
 O  O6  1  0.25289  0.19840  0.01486  1
 O  O7  1  0.00000  0.54530  0.22139  1
 O  O8  1  0.24711  0.69840  0.48514  1
 O  O9  1  0.74711  0.80160  0.98514  1
 O  O10  1  0.75289  0.30160  0.51486  1
 O  O11  1  0.00000  0.05813  0.72162  1
 O  O12  1  0.50000  0.44187  0.22162  1
 O  O13  1  0.74711  0.19840  0.01486  1
 O  O14  1  0.24711  0.30160  0.51486  1
 O  O15  1  0.75289  0.69840  0.48514  1
 O  O16  1  0.00000  0.94187  0.27838  1
 Tl  Tl1  1  0.00000  0.27299  0.61907  1
 Tl  Tl2  1  0.00000  0.72701  0.38093  1
 Tl  Tl3  1  0.50000  0.22701  0.11907  1
 Tl  Tl4  1  0.50000  0.77299  0.88093  1
