CIF file written using JARVIS-Tools package.
data_MgZn2
_symmetry_space_group_name_H-M  'P6_3/mmc'
_cell_length_a       5.21121
_cell_length_b       5.21121
_cell_length_c       8.48619
_cell_angle_alpha    90
_cell_angle_beta     90
_cell_angle_gamma    120

_symmetry_Int_Tables_number  194
_chemical_formula_structural  MgZn2
_chemical_formula_sum  Mg4Zn8
_cell_volume  199.58169535646098
_cell_formula_units_Z  4
loop_
  _symmetry_equiv_pos_site_id
 _symmetry_equiv_pos_as_xyz
 1  'x, y, z'
loop_
 _atom_site_type_symbol
 _atom_site_label
 _atom_site_symmetry_multiplicity
 _atom_site_fract_x
 _atom_site_fract_y
 _atom_site_fract_z
 _atom_site_fract_occupancy
 Mg  Mg1  1  0.33333  0.66667  0.06302  1
 Mg  Mg2  1  0.66667  0.33333  0.56302  1
 Mg  Mg3  1  0.66667  0.33333  0.93698  1
 Mg  Mg4  1  0.33333  0.66667  0.43698  1
 Zn  Zn1  1  0.00000  0.00000  0.00000  1
 Zn  Zn2  1  0.00000  0.00000  0.50000  1
 Zn  Zn3  1  0.17032  0.34063  0.75000  1
 Zn  Zn4  1  0.82968  0.17032  0.25000  1
 Zn  Zn5  1  0.34063  0.17032  0.25000  1
 Zn  Zn6  1  0.65937  0.82968  0.75000  1
 Zn  Zn7  1  0.17032  0.82968  0.75000  1
 Zn  Zn8  1  0.82968  0.65937  0.25000  1
