CIF file written using JARVIS-Tools package.
data_LiMn2P2O8
_symmetry_space_group_name_H-M  'Pc'
_cell_length_a       8.51342
_cell_length_b       4.97049
_cell_length_c       9.97935
_cell_angle_alpha    90
_cell_angle_beta     124.857
_cell_angle_gamma    90

_symmetry_Int_Tables_number  7
_chemical_formula_structural  LiMn2P2O8
_chemical_formula_sum  Li2Mn4P4O6
_cell_volume  346.5191577911692
_cell_formula_units_Z  2
loop_
  _symmetry_equiv_pos_site_id
 _symmetry_equiv_pos_as_xyz
 1  'x, y, z'
loop_
 _atom_site_type_symbol
 _atom_site_label
 _atom_site_symmetry_multiplicity
 _atom_site_fract_x
 _atom_site_fract_y
 _atom_site_fract_z
 _atom_site_fract_occupancy
 Li  Li1  1  0.50308  0.56901  0.99466  1
 Li  Li2  1  0.50308  0.43099  0.49466  1
 Mn  Mn1  1  0.49489  0.09164  0.76545  1
 Mn  Mn2  1  0.00056  0.44793  0.23013  1
 Mn  Mn3  1  0.00056  0.55207  0.73013  1
 Mn  Mn4  1  0.49489  0.90836  0.26545  1
 O  O1  1  0.71514  0.87482  0.83317  1
 O  O2  1  0.26021  0.63946  0.35279  1
 O  O3  1  0.93653  0.48729  0.89187  1
 O  O4  1  0.42219  0.91901  0.89526  1
 O  O5  1  0.05762  0.05787  0.24307  1
 O  O6  1  0.74233  0.48247  0.01235  1
 O  O7  1  0.57265  0.41872  0.71300  1
 O  O8  1  0.27640  -0.00510  0.54994  1
 O  O9  1  0.26021  0.36054  0.85279  1
 O  O10  1  0.71514  0.12518  0.33317  1
 O  O11  1  0.27640  0.00510  0.04994  1
 O  O12  1  0.05762  0.94213  0.74307  1
 O  O13  1  0.74233  0.51753  0.51235  1
 O  O14  1  0.93653  0.51271  0.39187  1
 O  O15  1  0.57265  0.58128  0.21300  1
 O  O16  1  0.42219  0.08099  0.39526  1
 P  P1  1  0.24852  0.94423  0.38589  1
 P  P2  1  0.74741  0.57013  0.86427  1
 P  P3  1  0.24852  0.05577  0.88589  1
 P  P4  1  0.74741  0.42987  0.36427  1
