CIF file written using JARVIS-Tools package.
data_UCoNiGe2
_symmetry_space_group_name_H-M  'P4/nmm'
_cell_length_a       4.11652
_cell_length_b       4.11652
_cell_length_c       9.22834
_cell_angle_alpha    90
_cell_angle_beta     90
_cell_angle_gamma    90

_symmetry_Int_Tables_number  129
_chemical_formula_structural  UCoNiGe2
_chemical_formula_sum  U2Co2Ni2Ge4
_cell_volume  156.38097614767494
_cell_formula_units_Z  2
loop_
  _symmetry_equiv_pos_site_id
 _symmetry_equiv_pos_as_xyz
 1  'x, y, z'
loop_
 _atom_site_type_symbol
 _atom_site_label
 _atom_site_symmetry_multiplicity
 _atom_site_fract_x
 _atom_site_fract_y
 _atom_site_fract_z
 _atom_site_fract_occupancy
 Co  Co1  1  0.50000  0.50000  0.00000  1
 Co  Co2  1  0.00000  0.00000  0.00000  1
 Ge  Ge1  1  0.00000  0.50000  0.87015  1
 Ge  Ge2  1  0.50000  0.00000  0.12985  1
 Ge  Ge3  1  0.50000  0.50000  0.50000  1
 Ge  Ge4  1  0.00000  0.00000  0.50000  1
 Ni  Ni1  1  0.00000  0.50000  0.62334  1
 Ni  Ni2  1  0.50000  0.00000  0.37666  1
 U  U1  1  0.00000  0.50000  0.23563  1
 U  U2  1  0.50000  0.00000  0.76437  1
