CIF file written using JARVIS-Tools package.
data_ErSi3Ni
_symmetry_space_group_name_H-M  'Cmmm'
_cell_length_a       3.93764
_cell_length_b       3.95204
_cell_length_c       10.6968
_cell_angle_alpha    90
_cell_angle_beta     100.606
_cell_angle_gamma    90

_symmetry_Int_Tables_number  65
_chemical_formula_structural  ErSi3Ni
_chemical_formula_sum  Er2Si6Ni2
_cell_volume  163.61660616869364
_cell_formula_units_Z  2
loop_
  _symmetry_equiv_pos_site_id
 _symmetry_equiv_pos_as_xyz
 1  'x, y, z'
loop_
 _atom_site_type_symbol
 _atom_site_label
 _atom_site_symmetry_multiplicity
 _atom_site_fract_x
 _atom_site_fract_y
 _atom_site_fract_z
 _atom_site_fract_occupancy
 Er  Er1  1  0.33099  0.50000  0.66197  1
 Er  Er2  1  0.66901  0.50000  0.33803  1
 Ni  Ni1  1  0.11073  0.00000  0.22146  1
 Ni  Ni2  1  0.88927  0.00000  0.77854  1
 Si  Si1  1  0.44359  0.00000  0.88718  1
 Si  Si2  1  0.55641  0.00000  0.11282  1
 Si  Si3  1  0.21783  0.00000  0.43566  1
 Si  Si4  1  0.78217  0.00000  0.56434  1
 Si  Si5  1  0.94363  0.50000  0.88726  1
 Si  Si6  1  0.05637  0.50000  0.11274  1
