CIF file written using JARVIS-Tools package.
data_CdI2
_symmetry_space_group_name_H-M  'P3m1'
_cell_length_a       4.28654
_cell_length_b       4.28654
_cell_length_c       48.1331
_cell_angle_alpha    90
_cell_angle_beta     90
_cell_angle_gamma    120

_symmetry_Int_Tables_number  156
_chemical_formula_structural  CdI2
_chemical_formula_sum  Cd7I4
_cell_volume  765.928941851683
_cell_formula_units_Z  7
loop_
  _symmetry_equiv_pos_site_id
 _symmetry_equiv_pos_as_xyz
 1  'x, y, z'
loop_
 _atom_site_type_symbol
 _atom_site_label
 _atom_site_symmetry_multiplicity
 _atom_site_fract_x
 _atom_site_fract_y
 _atom_site_fract_z
 _atom_site_fract_occupancy
 Cd  Cd1  1  0.66667  0.33333  0.32142  1
 Cd  Cd2  1  0.66667  0.33333  0.46426  1
 Cd  Cd3  1  0.00000  0.00000  0.60716  1
 Cd  Cd4  1  0.00000  0.00000  0.74996  1
 Cd  Cd5  1  0.66667  0.33333  0.89284  1
 Cd  Cd6  1  0.66667  0.33333  0.17860  1
 Cd  Cd7  1  0.66667  0.33333  0.03573  1
 I  I1  1  0.00000  0.00000  0.14258  1
 I  I2  1  0.66667  0.33333  0.57114  1
 I  I3  1  0.00000  0.00000  0.42825  1
 I  I4  1  0.66667  0.33333  0.71395  1
 I  I5  1  0.33333  0.66667  0.21462  1
 I  I6  1  0.33333  0.66667  0.07175  1
 I  I7  1  0.00000  0.00000  -0.00030  1
 I  I8  1  0.33333  0.66667  0.64318  1
 I  I9  1  0.33333  0.66667  0.35744  1
 I  I10  1  0.33333  0.66667  0.78600  1
 I  I11  1  0.33333  0.66667  0.92887  1
 I  I12  1  0.33333  0.66667  0.50030  1
 I  I13  1  0.00000  0.00000  0.85683  1
 I  I14  1  0.00000  0.00000  0.28540  1
