CIF file written using JARVIS-Tools package.
data_U2Al9Co3
_symmetry_space_group_name_H-M  'Cmcm'
_cell_length_a       7.42513
_cell_length_b       7.42513
_cell_length_c       9.2593
_cell_angle_alpha    90
_cell_angle_beta     90
_cell_angle_gamma    119.179

_symmetry_Int_Tables_number  63
_chemical_formula_structural  U2Al9Co3
_chemical_formula_sum  U4Al8Co6
_cell_volume  445.70713551670855
_cell_formula_units_Z  2
loop_
  _symmetry_equiv_pos_site_id
 _symmetry_equiv_pos_as_xyz
 1  'x, y, z'
loop_
 _atom_site_type_symbol
 _atom_site_label
 _atom_site_symmetry_multiplicity
 _atom_site_fract_x
 _atom_site_fract_y
 _atom_site_fract_z
 _atom_site_fract_occupancy
 Al  Al1  1  0.99956  0.33650  0.07188  1
 Al  Al2  1  0.99956  0.33650  0.42812  1
 Al  Al3  1  0.66350  0.00044  0.92812  1
 Al  Al4  1  0.65937  0.44526  0.75000  1
 Al  Al5  1  0.00044  0.66350  0.57188  1
 Al  Al6  1  0.34063  0.55474  0.25000  1
 Al  Al7  1  0.66636  0.66636  0.04762  1
 Al  Al8  1  0.66350  0.00044  0.57188  1
 Al  Al9  1  0.00044  0.66350  0.92812  1
 Al  Al10  1  0.33364  0.33364  0.95238  1
 Al  Al11  1  0.12703  0.12703  0.25000  1
 Al  Al12  1  0.33650  0.99956  0.07188  1
 Al  Al13  1  0.33364  0.33364  0.54762  1
 Al  Al14  1  0.66636  0.66636  0.45238  1
 Al  Al15  1  0.44526  0.65937  0.75000  1
 Al  Al16  1  0.87297  0.87297  0.75000  1
 Al  Al17  1  0.55474  0.34063  0.25000  1
 Al  Al18  1  0.33650  0.99956  0.42812  1
 Co  Co1  1  0.32841  0.67159  0.50000  1
 Co  Co2  1  0.67159  0.32841  0.50000  1
 Co  Co3  1  0.67159  0.32841  0.00000  1
 Co  Co4  1  0.00000  0.00000  0.00000  1
 Co  Co5  1  0.00000  0.00000  0.50000  1
 Co  Co6  1  0.32841  0.67159  0.00000  1
 U  U1  1  0.32639  0.00501  0.75000  1
 U  U2  1  0.67361  0.99499  0.25000  1
 U  U3  1  0.00501  0.32639  0.75000  1
 U  U4  1  0.99499  0.67361  0.25000  1
