CIF file written using JARVIS-Tools package.
data_NaAuS2O8
_symmetry_space_group_name_H-M  'P2_1/c'
_cell_length_a       4.75762
_cell_length_b       8.20342
_cell_length_c       9.18364
_cell_angle_alpha    90
_cell_angle_beta     114.542
_cell_angle_gamma    90

_symmetry_Int_Tables_number  14
_chemical_formula_structural  NaAuS2O8
_chemical_formula_sum  Na2Au2S4O6
_cell_volume  326.0447194955044
_cell_formula_units_Z  2
loop_
  _symmetry_equiv_pos_site_id
 _symmetry_equiv_pos_as_xyz
 1  'x, y, z'
loop_
 _atom_site_type_symbol
 _atom_site_label
 _atom_site_symmetry_multiplicity
 _atom_site_fract_x
 _atom_site_fract_y
 _atom_site_fract_z
 _atom_site_fract_occupancy
 Au  Au1  1  0.00000  0.00000  0.00000  1
 Au  Au2  1  0.00000  0.50000  0.50000  1
 Na  Na1  1  0.00000  0.00000  0.50000  1
 Na  Na2  1  0.00000  0.50000  0.00000  1
 O  O1  1  0.63576  0.35516  0.46635  1
 O  O2  1  0.36424  0.64484  0.53365  1
 O  O3  1  0.63576  0.14484  0.96635  1
 O  O4  1  0.75870  0.10930  0.25083  1
 O  O5  1  0.75280  0.71102  0.43953  1
 O  O6  1  0.24130  0.60930  0.24917  1
 O  O7  1  0.24720  0.21102  0.06047  1
 O  O8  1  0.36424  0.85516  0.03365  1
 O  O9  1  0.68449  0.38445  0.13430  1
 O  O10  1  0.24130  0.89070  0.74917  1
 O  O11  1  0.75280  0.78898  0.93953  1
 O  O12  1  0.68449  0.11555  0.63430  1
 O  O13  1  0.24720  0.28898  0.56047  1
 O  O14  1  0.31551  0.61555  0.86570  1
 O  O15  1  0.75870  0.39070  0.75083  1
 O  O16  1  0.31551  0.88445  0.36570  1
 S  S1  1  0.39707  0.71378  0.38422  1
 S  S2  1  0.39707  0.78622  0.88422  1
 S  S3  1  0.60293  0.28622  0.61578  1
 S  S4  1  0.60293  0.21378  0.11578  1
