CIF file written using JARVIS-Tools package.
data_KSmP4O12
_symmetry_space_group_name_H-M  'C2/c'
_cell_length_a       7.30875
_cell_length_b       7.30874
_cell_length_c       10.5822
_cell_angle_alpha    100.975
_cell_angle_beta     100.975
_cell_angle_gamma    115.031

_symmetry_Int_Tables_number  15
_chemical_formula_structural  KSmP4O12
_chemical_formula_sum  K2Sm2P8O24
_cell_volume  478.9266263356534
_cell_formula_units_Z  2
loop_
  _symmetry_equiv_pos_site_id
 _symmetry_equiv_pos_as_xyz
 1  'x, y, z'
loop_
 _atom_site_type_symbol
 _atom_site_label
 _atom_site_symmetry_multiplicity
 _atom_site_fract_x
 _atom_site_fract_y
 _atom_site_fract_z
 _atom_site_fract_occupancy
 K  K1  1  0.68102  0.31898  0.75000  1
 K  K2  1  0.31898  0.68102  0.25000  1
 O  O1  1  0.00827  0.85849  0.58745  1
 O  O2  1  0.85849  0.00827  0.08745  1
 O  O3  1  -0.00827  0.14151  0.41255  1
 O  O4  1  0.96523  0.21901  0.92398  1
 O  O5  1  0.78099  0.03477  0.57602  1
 O  O6  1  0.03477  0.78099  0.07602  1
 O  O7  1  0.67523  0.19574  0.40575  1
 O  O8  1  0.21901  0.96523  0.42398  1
 O  O9  1  0.70263  0.74570  0.68307  1
 O  O10  1  0.74570  0.70263  0.18307  1
 O  O11  1  0.29737  0.25430  0.31693  1
 O  O12  1  0.36399  0.33963  0.57683  1
 O  O13  1  0.66037  0.63601  0.92317  1
 O  O14  1  0.63601  0.66037  0.42317  1
 O  O15  1  0.33963  0.36399  0.07683  1
 O  O16  1  0.14151  -0.00827  0.91255  1
 O  O17  1  0.19574  0.67523  0.90575  1
 O  O18  1  0.00755  0.41686  0.61482  1
 O  O19  1  0.25430  0.29737  0.81693  1
 O  O20  1  0.32477  0.80426  0.59425  1
 O  O21  1  0.80426  0.32477  0.09425  1
 O  O22  1  0.99245  0.58314  0.38518  1
 O  O23  1  0.58314  0.99245  0.88518  1
 O  O24  1  0.41686  0.00755  0.11482  1
 P  P1  1  0.78551  0.13326  -0.00155  1
 P  P2  1  0.23690  0.19534  0.43562  1
 P  P3  1  0.21449  0.86674  0.00155  1
 P  P4  1  0.86674  0.21449  0.50155  1
 P  P5  1  0.19534  0.23690  0.93562  1
 P  P6  1  0.76310  0.80466  0.56438  1
 P  P7  1  0.80466  0.76310  0.06438  1
 P  P8  1  0.13326  0.78551  0.49845  1
 Sm  Sm1  1  0.61935  0.38065  0.25000  1
 Sm  Sm2  1  0.38065  0.61935  0.75000  1
