CIF file written using JARVIS-Tools package.
data_SnPO3F
_symmetry_space_group_name_H-M  'P2_1/c'
_cell_length_a       4.69081
_cell_length_b       6.15231
_cell_length_c       12.5542
_cell_angle_alpha    90
_cell_angle_beta     90
_cell_angle_gamma    98.163

_symmetry_Int_Tables_number  14
_chemical_formula_structural  SnPO3F
_chemical_formula_sum  Sn4P4O2F4
_cell_volume  358.634933720873
_cell_formula_units_Z  4
loop_
  _symmetry_equiv_pos_site_id
 _symmetry_equiv_pos_as_xyz
 1  'x, y, z'
loop_
 _atom_site_type_symbol
 _atom_site_label
 _atom_site_symmetry_multiplicity
 _atom_site_fract_x
 _atom_site_fract_y
 _atom_site_fract_z
 _atom_site_fract_occupancy
 F  F1  1  0.49628  0.65642  0.07028  1
 F  F2  1  0.50372  0.84358  0.57028  1
 F  F3  1  0.49628  0.15642  0.42972  1
 F  F4  1  0.50372  0.34358  0.92972  1
 O  O1  1  0.67632  0.95363  0.19609  1
 O  O2  1  0.32368  0.54637  0.69609  1
 O  O3  1  0.23756  0.97753  0.07485  1
 O  O4  1  0.76244  0.02247  0.92515  1
 O  O5  1  0.20518  0.69772  0.22766  1
 O  O6  1  0.20518  0.19772  0.27234  1
 O  O7  1  0.67632  0.45363  0.30391  1
 O  O8  1  0.32368  0.04637  0.80391  1
 O  O9  1  0.79482  0.30228  0.77234  1
 O  O10  1  0.79482  0.80228  0.72766  1
 O  O11  1  0.23756  0.47753  0.42515  1
 O  O12  1  0.76244  0.52247  0.57485  1
 P  P1  1  0.60365  0.66382  0.64815  1
 P  P2  1  0.39635  0.83618  0.14815  1
 P  P3  1  0.39635  0.33618  0.35185  1
 P  P4  1  0.60365  0.16382  0.85185  1
 Sn  Sn1  1  0.03653  0.76867  0.87430  1
 Sn  Sn2  1  0.96347  0.23133  0.12570  1
 Sn  Sn3  1  0.03653  0.26867  0.62570  1
 Sn  Sn4  1  0.96347  0.73133  0.37430  1
