CIF file written using JARVIS-Tools package.
data_V3FeS6
_symmetry_space_group_name_H-M  'R-3'
_cell_length_a       5.61904
_cell_length_b       5.61904
_cell_length_c       6.39526
_cell_angle_alpha    90
_cell_angle_beta     63.94
_cell_angle_gamma    120

_symmetry_Int_Tables_number  148
_chemical_formula_structural  V3FeS6
_chemical_formula_sum  V3FeS6
_cell_volume  150.69965484886015
_cell_formula_units_Z  1
loop_
  _symmetry_equiv_pos_site_id
 _symmetry_equiv_pos_as_xyz
 1  'x, y, z'
loop_
 _atom_site_type_symbol
 _atom_site_label
 _atom_site_symmetry_multiplicity
 _atom_site_fract_x
 _atom_site_fract_y
 _atom_site_fract_z
 _atom_site_fract_occupancy
 Fe  Fe1  1  0.00000  0.50000  0.50000  1
 S  S1  1  0.15607  0.24439  0.26353  1
 S  S2  1  0.82479  0.58040  0.26353  1
 S  S3  1  0.49207  0.91168  0.26353  1
 S  S4  1  0.84393  0.75561  0.73647  1
 S  S5  1  0.17521  0.41960  0.73647  1
 S  S6  1  0.50793  0.08832  0.73647  1
 V  V1  1  0.66203  0.33102  0.00695  1
 V  V2  1  0.33797  0.66898  0.99305  1
 V  V3  1  0.00000  0.00000  0.00000  1
