CIF file written using JARVIS-Tools package.
data_Y2Si2O7
_symmetry_space_group_name_H-M  'P2_1/m'
_cell_length_a       5.07619
_cell_length_b       8.1035
_cell_length_c       7.3827
_cell_angle_alpha    90
_cell_angle_beta     109.205
_cell_angle_gamma    90

_symmetry_Int_Tables_number  11
_chemical_formula_structural  Y2Si2O7
_chemical_formula_sum  Y4Si4O4
_cell_volume  286.78601975754054
_cell_formula_units_Z  2
loop_
  _symmetry_equiv_pos_site_id
 _symmetry_equiv_pos_as_xyz
 1  'x, y, z'
loop_
 _atom_site_type_symbol
 _atom_site_label
 _atom_site_symmetry_multiplicity
 _atom_site_fract_x
 _atom_site_fract_y
 _atom_site_fract_z
 _atom_site_fract_occupancy
 O  O1  1  0.92412  0.75000  0.18471  1
 O  O2  1  0.28084  0.58372  0.03246  1
 O  O3  1  0.71916  0.08372  0.96754  1
 O  O4  1  0.28084  0.91628  0.03246  1
 O  O5  1  0.51095  0.25000  0.66472  1
 O  O6  1  0.83145  0.57921  0.59417  1
 O  O7  1  0.83145  0.92079  0.59417  1
 O  O8  1  0.16855  0.42079  0.40583  1
 O  O9  1  0.42947  0.75000  0.68913  1
 O  O10  1  0.57053  0.25000  0.31087  1
 O  O11  1  0.07588  0.25000  0.81529  1
 O  O12  1  0.48905  0.75000  0.33528  1
 O  O13  1  0.16855  0.07921  0.40583  1
 O  O14  1  0.71916  0.41628  0.96754  1
 Si  Si1  1  0.34589  0.25000  0.42509  1
 Si  Si2  1  0.79080  0.25000  0.86901  1
 Si  Si3  1  0.65411  0.75000  0.57491  1
 Si  Si4  1  0.20920  0.75000  0.13099  1
 Y  Y1  1  0.72791  0.99156  0.25222  1
 Y  Y2  1  0.27209  0.00844  0.74778  1
 Y  Y3  1  0.27209  0.49156  0.74778  1
 Y  Y4  1  0.72791  0.50844  0.25222  1
