CIF file written using JARVIS-Tools package.
data_Li3Fe5Co2O12
_symmetry_space_group_name_H-M  'C2'
_cell_length_a       4.96943
_cell_length_b       4.96943
_cell_length_c       9.54439
_cell_angle_alpha    84.7982
_cell_angle_beta     95.2018
_cell_angle_gamma    58.7328

_symmetry_Int_Tables_number  5
_chemical_formula_structural  Li3Fe5Co2O12
_chemical_formula_sum  Li3Fe5Co2O2
_cell_volume  197.99361058378875
_cell_formula_units_Z  1
loop_
  _symmetry_equiv_pos_site_id
 _symmetry_equiv_pos_as_xyz
 1  'x, y, z'
loop_
 _atom_site_type_symbol
 _atom_site_label
 _atom_site_symmetry_multiplicity
 _atom_site_fract_x
 _atom_site_fract_y
 _atom_site_fract_z
 _atom_site_fract_occupancy
 Co  Co1  1  0.25102  0.25102  0.75000  1
 Co  Co2  1  0.75169  0.75169  0.25000  1
 Fe  Fe1  1  0.07777  0.07777  0.25000  1
 Fe  Fe2  1  0.00871  0.51886  0.98998  1
 Fe  Fe3  1  0.51886  0.00871  0.51002  1
 Fe  Fe4  1  0.41854  0.41854  0.25000  1
 Fe  Fe5  1  0.57569  0.57569  0.75000  1
 Li  Li1  1  0.32602  0.84129  0.99357  1
 Li  Li2  1  0.84129  0.32602  0.50643  1
 Li  Li3  1  0.92165  0.92165  0.75000  1
 O  O1  1  0.71449  0.46599  0.14201  1
 O  O2  1  0.36288  0.12690  0.14318  1
 O  O3  1  0.29130  0.53311  0.86390  1
 O  O4  1  0.04575  0.78253  0.13733  1
 O  O5  1  0.12690  0.36288  0.35682  1
 O  O6  1  0.96205  0.23409  0.86474  1
 O  O7  1  0.46599  0.71449  0.35799  1
 O  O8  1  0.78253  0.04575  0.36267  1
 O  O9  1  0.60531  0.85476  0.86429  1
 O  O10  1  0.53311  0.29130  0.63610  1
 O  O11  1  0.23409  0.96205  0.63526  1
 O  O12  1  0.85476  0.60531  0.63571  1
