CIF file written using JARVIS-Tools package.
data_Ba3Ac
_symmetry_space_group_name_H-M  'P6_3/mmc'
_cell_length_a       8.52824
_cell_length_b       8.52824
_cell_length_c       6.8416
_cell_angle_alpha    90
_cell_angle_beta     90
_cell_angle_gamma    120

_symmetry_Int_Tables_number  194
_chemical_formula_structural  Ba3Ac
_chemical_formula_sum  Ba6Ac2
_cell_volume  430.93016216656775
_cell_formula_units_Z  2
loop_
  _symmetry_equiv_pos_site_id
 _symmetry_equiv_pos_as_xyz
 1  'x, y, z'
loop_
 _atom_site_type_symbol
 _atom_site_label
 _atom_site_symmetry_multiplicity
 _atom_site_fract_x
 _atom_site_fract_y
 _atom_site_fract_z
 _atom_site_fract_occupancy
 Ac  Ac1  1  0.33333  0.66667  0.75000  1
 Ac  Ac2  1  0.66667  0.33333  0.25000  1
 Ba  Ba1  1  0.17014  0.34029  0.25000  1
 Ba  Ba2  1  0.65971  0.82986  0.25000  1
 Ba  Ba3  1  0.17014  0.82986  0.25000  1
 Ba  Ba4  1  0.82986  0.65971  0.75000  1
 Ba  Ba5  1  0.34029  0.17014  0.75000  1
 Ba  Ba6  1  0.82986  0.17014  0.75000  1
