CIF file written using JARVIS-Tools package.
data_Yb2FeS4
_symmetry_space_group_name_H-M  'Fd-3m'
_cell_length_a       7.6581
_cell_length_b       7.6581
_cell_length_c       7.6581
_cell_angle_alpha    60
_cell_angle_beta     60
_cell_angle_gamma    60

_symmetry_Int_Tables_number  227
_chemical_formula_structural  Yb2FeS4
_chemical_formula_sum  Yb4Fe2S8
_cell_volume  317.5764158946014
_cell_formula_units_Z  2
loop_
  _symmetry_equiv_pos_site_id
 _symmetry_equiv_pos_as_xyz
 1  'x, y, z'
loop_
 _atom_site_type_symbol
 _atom_site_label
 _atom_site_symmetry_multiplicity
 _atom_site_fract_x
 _atom_site_fract_y
 _atom_site_fract_z
 _atom_site_fract_occupancy
 Fe  Fe1  1  0.12500  0.12500  0.12500  1
 Fe  Fe2  1  0.87500  0.87500  0.87500  1
 S  S1  1  0.75629  0.75629  0.75629  1
 S  S2  1  0.24371  0.24371  0.76887  1
 S  S3  1  0.24371  0.76887  0.24371  1
 S  S4  1  0.76887  0.24371  0.24371  1
 S  S5  1  0.75629  0.23113  0.75629  1
 S  S6  1  0.23113  0.75629  0.75629  1
 S  S7  1  0.24371  0.24371  0.24371  1
 S  S8  1  0.75629  0.75629  0.23113  1
 Yb  Yb1  1  0.50000  0.50000  0.00000  1
 Yb  Yb2  1  0.50000  0.50000  0.50000  1
 Yb  Yb3  1  -0.00000  0.50000  0.50000  1
 Yb  Yb4  1  0.50000  0.00000  0.50000  1
