CIF file written using JARVIS-Tools package.
data_Cr2SN2
_symmetry_space_group_name_H-M  'P-3m1'
_cell_length_a       3.25773
_cell_length_b       3.25596
_cell_length_c       6.09347
_cell_angle_alpha    90
_cell_angle_beta     90.015
_cell_angle_gamma    119.982

_symmetry_Int_Tables_number  164
_chemical_formula_structural  Cr2SN2
_chemical_formula_sum  Cr2SN2
_cell_volume  55.98444239144724
_cell_formula_units_Z  1
loop_
  _symmetry_equiv_pos_site_id
 _symmetry_equiv_pos_as_xyz
 1  'x, y, z'
loop_
 _atom_site_type_symbol
 _atom_site_label
 _atom_site_symmetry_multiplicity
 _atom_site_fract_x
 _atom_site_fract_y
 _atom_site_fract_z
 _atom_site_fract_occupancy
 Cr  Cr1  1  0.66674  0.33337  0.69648  1
 Cr  Cr2  1  0.33326  0.66663  0.30352  1
 N  N1  1  0.66688  0.33344  0.36950  1
 N  N2  1  0.33312  0.66656  0.63050  1
 S  S1  1  0.00000  0.00000  0.00000  1
