CIF file written using JARVIS-Tools package.
data_U2Al3Sn3
_symmetry_space_group_name_H-M  'Pmmm'
_cell_length_a       4.43809
_cell_length_b       4.47418
_cell_length_c       8.93621
_cell_angle_alpha    90
_cell_angle_beta     90
_cell_angle_gamma    90

_symmetry_Int_Tables_number  47
_chemical_formula_structural  U2Al3Sn3
_chemical_formula_sum  U2Al3Sn3
_cell_volume  177.44488714467101
_cell_formula_units_Z  1
loop_
  _symmetry_equiv_pos_site_id
 _symmetry_equiv_pos_as_xyz
 1  'x, y, z'
loop_
 _atom_site_type_symbol
 _atom_site_label
 _atom_site_symmetry_multiplicity
 _atom_site_fract_x
 _atom_site_fract_y
 _atom_site_fract_z
 _atom_site_fract_occupancy
 Al  Al1  1  0.50000  0.50000  0.76486  1
 Al  Al2  1  0.50000  0.50000  0.23514  1
 Al  Al3  1  0.50000  0.00000  0.00000  1
 Sn  Sn1  1  0.50000  0.00000  0.50000  1
 Sn  Sn2  1  0.00000  0.50000  0.00000  1
 Sn  Sn3  1  0.00000  0.50000  0.50000  1
 U  U1  1  0.00000  0.00000  0.75317  1
 U  U2  1  0.00000  0.00000  0.24683  1
