CIF file written using JARVIS-Tools package.
data_VBiO4
_symmetry_space_group_name_H-M  'I4_1/a'
_cell_length_a       7.30245
_cell_length_b       11.6927
_cell_length_c       5.16344
_cell_angle_alpha    90
_cell_angle_beta     134.999
_cell_angle_gamma    90

_symmetry_Int_Tables_number  88
_chemical_formula_structural  VBiO4
_chemical_formula_sum  V4Bi4O6
_cell_volume  311.75371708704483
_cell_formula_units_Z  4
loop_
  _symmetry_equiv_pos_site_id
 _symmetry_equiv_pos_as_xyz
 1  'x, y, z'
loop_
 _atom_site_type_symbol
 _atom_site_label
 _atom_site_symmetry_multiplicity
 _atom_site_fract_x
 _atom_site_fract_y
 _atom_site_fract_z
 _atom_site_fract_occupancy
 Bi  Bi1  1  -0.00000  0.62501  0.25000  1
 Bi  Bi2  1  0.00000  0.37499  0.75000  1
 Bi  Bi3  1  0.50000  0.12501  0.25000  1
 Bi  Bi4  1  0.50000  0.87499  0.75000  1
 O  O1  1  0.25019  0.45422  0.35995  1
 O  O2  1  0.85974  0.20422  0.35956  1
 O  O3  1  0.14026  0.79578  0.64044  1
 O  O4  1  0.14026  0.20422  0.14044  1
 O  O5  1  0.75019  0.95422  0.35995  1
 O  O6  1  0.35974  0.70422  0.35956  1
 O  O7  1  0.64026  0.29578  0.64044  1
 O  O8  1  0.85974  0.79578  0.85956  1
 O  O9  1  0.35974  0.29578  0.85956  1
 O  O10  1  0.24981  0.04578  0.64005  1
 O  O11  1  0.25019  0.54578  0.85995  1
 O  O12  1  0.64026  0.70422  0.14044  1
 O  O13  1  0.74981  0.54578  0.64005  1
 O  O14  1  0.24981  0.95422  0.14005  1
 O  O15  1  0.75019  0.04578  0.85995  1
 O  O16  1  0.74981  0.45422  0.14005  1
 V  V1  1  0.50000  0.37500  0.75000  1
 V  V2  1  0.50000  0.62500  0.25000  1
 V  V3  1  0.00000  0.87500  0.75000  1
 V  V4  1  -0.00000  0.12500  0.25000  1
