CIF file written using JARVIS-Tools package.
data_Co2Ge3Se3
_symmetry_space_group_name_H-M  'R-3'
_cell_length_a       8.37743
_cell_length_b       8.37743
_cell_length_c       8.37743
_cell_angle_alpha    89.9802
_cell_angle_beta     89.9802
_cell_angle_gamma    89.9802

_symmetry_Int_Tables_number  148
_chemical_formula_structural  Co2Ge3Se3
_chemical_formula_sum  Co8Ge2Se2
_cell_volume  587.9387907990276
_cell_formula_units_Z  4
loop_
  _symmetry_equiv_pos_site_id
 _symmetry_equiv_pos_as_xyz
 1  'x, y, z'
loop_
 _atom_site_type_symbol
 _atom_site_label
 _atom_site_symmetry_multiplicity
 _atom_site_fract_x
 _atom_site_fract_y
 _atom_site_fract_z
 _atom_site_fract_occupancy
 Co  Co1  1  0.00296  0.00296  0.00296  1
 Co  Co2  1  0.50279  0.50279  0.50279  1
 Co  Co3  1  -0.00001  0.50143  0.50138  1
 Co  Co4  1  0.50138  -0.00001  0.50143  1
 Co  Co5  1  0.50143  0.50138  -0.00001  1
 Co  Co6  1  0.50576  0.00433  0.00437  1
 Co  Co7  1  0.00437  0.50576  0.00433  1
 Co  Co8  1  0.00433  0.00437  0.50576  1
 Ge  Ge1  1  0.75251  0.07867  0.59538  1
 Ge  Ge2  1  0.25568  0.92748  0.09586  1
 Ge  Ge3  1  0.09586  0.25568  0.92748  1
 Ge  Ge4  1  0.92748  0.09586  0.25568  1
 Ge  Ge5  1  0.59538  0.75251  0.07867  1
 Ge  Ge6  1  0.07867  0.59538  0.75251  1
 Ge  Ge7  1  0.25007  0.57827  0.40989  1
 Ge  Ge8  1  0.57827  0.40989  0.25007  1
 Ge  Ge9  1  0.42708  0.91037  0.75324  1
 Ge  Ge10  1  0.91037  0.75324  0.42708  1
 Ge  Ge11  1  0.75324  0.42708  0.91037  1
 Ge  Ge12  1  0.40989  0.25007  0.57827  1
 Se  Se1  1  0.90800  0.40121  0.25245  1
 Se  Se2  1  0.09832  0.90087  0.75679  1
 Se  Se3  1  0.90087  0.75679  0.09832  1
 Se  Se4  1  0.10454  0.25331  0.59776  1
 Se  Se5  1  0.75679  0.09832  0.90087  1
 Se  Se6  1  0.60489  0.74897  0.40744  1
 Se  Se7  1  0.74897  0.40744  0.60489  1
 Se  Se8  1  0.40744  0.60489  0.74897  1
 Se  Se9  1  0.40121  0.25245  0.90800  1
 Se  Se10  1  0.25331  0.59776  0.10454  1
 Se  Se11  1  0.59776  0.10454  0.25331  1
 Se  Se12  1  0.25245  0.90800  0.40121  1
