CIF file written using JARVIS-Tools package.
data_MgTi2O4
_symmetry_space_group_name_H-M  'Imma'
_cell_length_a       5.86803
_cell_length_b       5.93553
_cell_length_c       5.93546
_cell_angle_alpha    61.4548
_cell_angle_beta     60.3749
_cell_angle_gamma    60.3749

_symmetry_Int_Tables_number  74
_chemical_formula_structural  MgTi2O4
_chemical_formula_sum  Mg2Ti4O8
_cell_volume  148.5706445330582
_cell_formula_units_Z  2
loop_
  _symmetry_equiv_pos_site_id
 _symmetry_equiv_pos_as_xyz
 1  'x, y, z'
loop_
 _atom_site_type_symbol
 _atom_site_label
 _atom_site_symmetry_multiplicity
 _atom_site_fract_x
 _atom_site_fract_y
 _atom_site_fract_z
 _atom_site_fract_occupancy
 Mg  Mg1  1  0.00000  0.00000  0.00000  1
 Mg  Mg2  1  0.50000  -0.00000  0.00000  1
 O  O1  1  0.77101  0.25266  0.25266  1
 O  O2  1  0.75661  0.74691  0.23986  1
 O  O3  1  0.22367  0.25266  0.25266  1
 O  O4  1  0.24339  0.76014  0.25309  1
 O  O5  1  0.77633  0.74734  0.74734  1
 O  O6  1  0.24339  0.25309  0.76014  1
 O  O7  1  0.75661  0.23986  0.74691  1
 O  O8  1  0.22899  0.74734  0.74734  1
 Ti  Ti1  1  -0.00000  0.50000  0.00000  1
 Ti  Ti2  1  -0.00000  0.50000  0.50000  1
 Ti  Ti3  1  0.00000  -0.00000  0.50000  1
 Ti  Ti4  1  0.50000  0.50000  0.50000  1
