CIF file written using JARVIS-Tools package.
data_MgTiN2
_symmetry_space_group_name_H-M  'R-3m'
_cell_length_a       5.28801
_cell_length_b       5.28801
_cell_length_c       5.28801
_cell_angle_alpha    33.1723
_cell_angle_beta     33.1723
_cell_angle_gamma    33.1724

_symmetry_Int_Tables_number  166
_chemical_formula_structural  MgTiN2
_chemical_formula_sum  MgTiN2
_cell_volume  39.40697210942078
_cell_formula_units_Z  1
loop_
  _symmetry_equiv_pos_site_id
 _symmetry_equiv_pos_as_xyz
 1  'x, y, z'
loop_
 _atom_site_type_symbol
 _atom_site_label
 _atom_site_symmetry_multiplicity
 _atom_site_fract_x
 _atom_site_fract_y
 _atom_site_fract_z
 _atom_site_fract_occupancy
 Mg  Mg1  1  0.00000  0.66667  0.33333  1
 N  N1  1  0.75645  0.42311  0.08978  1
 N  N2  1  0.24355  0.91022  0.57689  1
 Ti  Ti1  1  0.50000  0.16667  0.83333  1
