CIF file written using JARVIS-Tools package.
data_Li5CuF8
_symmetry_space_group_name_H-M  'R-3m'
_cell_length_a       5.75112
_cell_length_b       5.88252
_cell_length_c       5.75112
_cell_angle_alpha    119.264
_cell_angle_beta     120
_cell_angle_gamma    90

_symmetry_Int_Tables_number  166
_chemical_formula_structural  Li5CuF8
_chemical_formula_sum  Li5CuF8
_cell_volume  139.0904165373751
_cell_formula_units_Z  1
loop_
  _symmetry_equiv_pos_site_id
 _symmetry_equiv_pos_as_xyz
 1  'x, y, z'
loop_
 _atom_site_type_symbol
 _atom_site_label
 _atom_site_symmetry_multiplicity
 _atom_site_fract_x
 _atom_site_fract_y
 _atom_site_fract_z
 _atom_site_fract_occupancy
 Cu  Cu1  1  0.50000  0.50000  -0.00000  1
 F  F1  1  0.26571  0.26570  -0.00001  1
 F  F2  1  0.26615  0.79846  0.53231  1
 F  F3  1  0.73429  0.26570  -0.00001  1
 F  F4  1  0.73429  0.73430  0.46859  1
 F  F5  1  0.26571  0.26570  0.53141  1
 F  F6  1  0.26571  0.73430  0.00001  1
 F  F7  1  0.73385  0.20154  0.46769  1
 F  F8  1  0.73429  0.73430  0.00001  1
 Li  Li1  1  0.14131  0.42393  0.28262  1
 Li  Li2  1  0.50000  -0.00000  0.00000  1
 Li  Li3  1  -0.00000  -0.00000  0.50000  1
 Li  Li4  1  0.85869  0.57607  0.71738  1
 Li  Li5  1  0.50000  -0.00000  0.50000  1
