CIF file written using JARVIS-Tools package.
data_Yb2S3
_symmetry_space_group_name_H-M  'R-3c'
_cell_length_a       7.77273
_cell_length_b       7.77273
_cell_length_c       7.77273
_cell_angle_alpha    50.9831
_cell_angle_beta     50.9832
_cell_angle_gamma    50.9832

_symmetry_Int_Tables_number  167
_chemical_formula_structural  Yb2S3
_chemical_formula_sum  Yb4S6
_cell_volume  261.4686946298925
_cell_formula_units_Z  2
loop_
  _symmetry_equiv_pos_site_id
 _symmetry_equiv_pos_as_xyz
 1  'x, y, z'
loop_
 _atom_site_type_symbol
 _atom_site_label
 _atom_site_symmetry_multiplicity
 _atom_site_fract_x
 _atom_site_fract_y
 _atom_site_fract_z
 _atom_site_fract_occupancy
 S  S1  1  0.54699  0.95301  0.25000  1
 S  S2  1  0.25000  0.54699  0.95301  1
 S  S3  1  0.95301  0.25000  0.54699  1
 S  S4  1  0.45301  0.04699  0.75000  1
 S  S5  1  0.75000  0.45301  0.04699  1
 S  S6  1  0.04699  0.75000  0.45301  1
 Yb  Yb1  1  0.34656  0.34656  0.34656  1
 Yb  Yb2  1  0.15344  0.15344  0.15344  1
 Yb  Yb3  1  0.65344  0.65344  0.65344  1
 Yb  Yb4  1  0.84656  0.84656  0.84656  1
