CIF file written using JARVIS-Tools package.
data_Rb3LuO3
_symmetry_space_group_name_H-M  'P2_1/c'
_cell_length_a       7.71528
_cell_length_b       7.24736
_cell_length_c       11.5961
_cell_angle_alpha    90
_cell_angle_beta     93.7771
_cell_angle_gamma    90

_symmetry_Int_Tables_number  14
_chemical_formula_structural  Rb3LuO3
_chemical_formula_sum  Rb2Lu4O2
_cell_volume  646.9932849780962
_cell_formula_units_Z  4
loop_
  _symmetry_equiv_pos_site_id
 _symmetry_equiv_pos_as_xyz
 1  'x, y, z'
loop_
 _atom_site_type_symbol
 _atom_site_label
 _atom_site_symmetry_multiplicity
 _atom_site_fract_x
 _atom_site_fract_y
 _atom_site_fract_z
 _atom_site_fract_occupancy
 Lu  Lu1  1  0.84208  0.41045  0.43067  1
 Lu  Lu2  1  0.84208  0.08955  0.93067  1
 Lu  Lu3  1  0.15792  0.91045  0.06933  1
 Lu  Lu4  1  0.15792  0.58955  0.56933  1
 O  O1  1  0.29901  0.05327  0.19579  1
 O  O2  1  0.70099  0.55327  0.30421  1
 O  O3  1  0.11345  0.45006  0.40795  1
 O  O4  1  0.74723  0.14660  0.45197  1
 O  O5  1  0.25277  0.85340  0.54803  1
 O  O6  1  0.88655  0.54994  0.59205  1
 O  O7  1  0.29901  0.44673  0.69579  1
 O  O8  1  0.70099  0.94673  0.80421  1
 O  O9  1  0.11345  0.04994  0.90795  1
 O  O10  1  0.74723  0.35340  0.95197  1
 O  O11  1  0.25277  0.64660  0.04803  1
 O  O12  1  0.88655  0.95006  0.09205  1
 Rb  Rb1  1  0.64091  0.66483  0.07671  1
 Rb  Rb2  1  0.06275  0.37783  0.15800  1
 Rb  Rb3  1  0.62280  0.19339  0.18957  1
 Rb  Rb4  1  0.37720  0.69339  0.31043  1
 Rb  Rb5  1  0.93725  0.87783  0.34200  1
 Rb  Rb6  1  0.35909  0.16483  0.42329  1
 Rb  Rb7  1  0.64091  0.83517  0.57671  1
 Rb  Rb8  1  0.06275  0.12217  0.65800  1
 Rb  Rb9  1  0.62280  0.30661  0.68957  1
 Rb  Rb10  1  0.37720  0.80661  0.81043  1
 Rb  Rb11  1  0.93725  0.62217  0.84200  1
 Rb  Rb12  1  0.35909  0.33517  0.92329  1
