CIF file written using JARVIS-Tools package.
data_NaCrN
_symmetry_space_group_name_H-M  'P6_3mc'
_cell_length_a       3.10801
_cell_length_b       3.10797
_cell_length_c       10.2432
_cell_angle_alpha    90
_cell_angle_beta     90
_cell_angle_gamma    120.001

_symmetry_Int_Tables_number  186
_chemical_formula_structural  NaCrN
_chemical_formula_sum  Na2Cr2N2
_cell_volume  85.68897821030254
_cell_formula_units_Z  2
loop_
  _symmetry_equiv_pos_site_id
 _symmetry_equiv_pos_as_xyz
 1  'x, y, z'
loop_
 _atom_site_type_symbol
 _atom_site_label
 _atom_site_symmetry_multiplicity
 _atom_site_fract_x
 _atom_site_fract_y
 _atom_site_fract_z
 _atom_site_fract_occupancy
 Cr  Cr1  1  0.00015  0.00029  0.51773  1
 Cr  Cr2  1  0.99985  0.99971  0.01773  1
 N  N1  1  0.33349  0.66699  0.56725  1
 N  N2  1  0.66651  0.33301  0.06725  1
 Na  Na1  1  0.66675  0.33350  0.75966  1
 Na  Na2  1  0.33325  0.66650  0.25966  1
