CIF file written using JARVIS-Tools package.
data_Li2Cr2O7
_symmetry_space_group_name_H-M  'P1'
_cell_length_a       6.4279
_cell_length_b       6.3836
_cell_length_c       7.26441
_cell_angle_alpha    85.9294
_cell_angle_beta     68.4818
_cell_angle_gamma    83.2036

_symmetry_Int_Tables_number  1
_chemical_formula_structural  Li2Cr2O7
_chemical_formula_sum  Li4Cr4O4
_cell_volume  275.2342178583104
_cell_formula_units_Z  2
loop_
  _symmetry_equiv_pos_site_id
 _symmetry_equiv_pos_as_xyz
 1  'x, y, z'
loop_
 _atom_site_type_symbol
 _atom_site_label
 _atom_site_symmetry_multiplicity
 _atom_site_fract_x
 _atom_site_fract_y
 _atom_site_fract_z
 _atom_site_fract_occupancy
 Cr  Cr1  1  0.21142  0.03138  0.20948  1
 Cr  Cr2  1  0.61243  0.37069  0.30827  1
 Cr  Cr3  1  0.08813  0.70078  0.77839  1
 Cr  Cr4  1  0.52314  0.14197  0.74424  1
 Li  Li1  1  0.08522  0.54360  0.33842  1
 Li  Li2  1  0.75830  0.84194  0.20423  1
 Li  Li3  1  0.57895  0.59453  0.90218  1
 Li  Li4  1  0.05200  0.23849  0.64910  1
 O  O1  1  0.44086  0.93666  0.23958  1
 O  O2  1  0.08422  0.21730  0.36720  1
 O  O3  1  0.70343  0.28205  0.77403  1
 O  O4  1  0.78816  0.19125  0.16999  1
 O  O5  1  0.12638  0.94442  0.69335  1
 O  O6  1  0.44288  0.47609  0.19812  1
 O  O7  1  0.63894  0.90695  0.69413  1
 O  O8  1  0.05320  0.83900  0.24257  1
 O  O9  1  0.74612  0.55040  0.35491  1
 O  O10  1  0.08761  0.54551  0.60291  1
 O  O11  1  0.28834  0.13888  0.95995  1
 O  O12  1  0.29146  0.60829  0.85976  1
 O  O13  1  0.45583  0.24823  0.54349  1
 O  O14  1  0.83550  0.69687  0.96035  1
