CIF file written using JARVIS-Tools package.
data_CaPtO3
_symmetry_space_group_name_H-M  'Cmcm'
_cell_length_a       3.1727
_cell_length_b       5.21601
_cell_length_c       7.4017
_cell_angle_alpha    90
_cell_angle_beta     90
_cell_angle_gamma    107.706

_symmetry_Int_Tables_number  63
_chemical_formula_structural  CaPtO3
_chemical_formula_sum  Ca2Pt2O6
_cell_volume  116.6872280323471
_cell_formula_units_Z  2
loop_
  _symmetry_equiv_pos_site_id
 _symmetry_equiv_pos_as_xyz
 1  'x, y, z'
loop_
 _atom_site_type_symbol
 _atom_site_label
 _atom_site_symmetry_multiplicity
 _atom_site_fract_x
 _atom_site_fract_y
 _atom_site_fract_z
 _atom_site_fract_occupancy
 Ca  Ca1  1  0.24958  0.49917  0.75000  1
 Ca  Ca2  1  0.75042  0.50083  0.25000  1
 O  O1  1  0.62878  0.25756  0.54724  1
 O  O2  1  0.37122  0.74244  0.45276  1
 O  O3  1  0.37122  0.74244  0.04724  1
 O  O4  1  0.62878  0.25756  0.95276  1
 O  O5  1  0.91580  0.83161  0.75000  1
 O  O6  1  0.08420  0.16839  0.25000  1
 Pt  Pt1  1  0.00000  0.00000  0.00000  1
 Pt  Pt2  1  0.00000  0.00000  0.50000  1
