CIF file written using JARVIS-Tools package.
data_U3O8
_symmetry_space_group_name_H-M  'Cmmm'
_cell_length_a       4.16287
_cell_length_b       6.99323
_cell_length_c       6.77848
_cell_angle_alpha    121.054
_cell_angle_beta     90
_cell_angle_gamma    90

_symmetry_Int_Tables_number  65
_chemical_formula_structural  U3O8
_chemical_formula_sum  U3O8
_cell_volume  169.05309112597297
_cell_formula_units_Z  1
loop_
  _symmetry_equiv_pos_site_id
 _symmetry_equiv_pos_as_xyz
 1  'x, y, z'
loop_
 _atom_site_type_symbol
 _atom_site_label
 _atom_site_symmetry_multiplicity
 _atom_site_fract_x
 _atom_site_fract_y
 _atom_site_fract_z
 _atom_site_fract_occupancy
 O  O1  1  0.00000  0.33272  0.29517  1
 O  O2  1  0.00000  0.66728  0.70483  1
 O  O3  1  1.00000  0.03755  0.70483  1
 O  O4  1  0.00000  0.50000  0.00000  1
 O  O5  1  0.50000  0.00000  0.00000  1
 O  O6  1  0.50000  0.31413  0.62826  1
 O  O7  1  0.50000  0.68587  0.37174  1
 O  O8  1  1.00000  0.96245  0.29517  1
 U  U1  1  0.00000  0.68167  0.36333  1
 U  U2  1  0.00000  0.31833  0.63667  1
 U  U3  1  0.00000  0.00000  0.00000  1
