CIF file written using JARVIS-Tools package.
data_LuSF
_symmetry_space_group_name_H-M  'R-3m'
_cell_length_a       8.57861
_cell_length_b       8.57861
_cell_length_c       8.57862
_cell_angle_alpha    26.2193
_cell_angle_beta     26.2193
_cell_angle_gamma    26.2193

_symmetry_Int_Tables_number  166
_chemical_formula_structural  LuSF
_chemical_formula_sum  Lu2S2F2
_cell_volume  108.58165244586775
_cell_formula_units_Z  2
loop_
  _symmetry_equiv_pos_site_id
 _symmetry_equiv_pos_as_xyz
 1  'x, y, z'
loop_
 _atom_site_type_symbol
 _atom_site_label
 _atom_site_symmetry_multiplicity
 _atom_site_fract_x
 _atom_site_fract_y
 _atom_site_fract_z
 _atom_site_fract_occupancy
 F  F1  1  0.18191  0.18191  0.18191  1
 F  F2  1  0.81809  0.81809  0.81809  1
 Lu  Lu1  1  0.00000  0.00000  0.00000  1
 Lu  Lu2  1  0.50000  0.50000  0.50000  1
 S  S1  1  0.39154  0.39154  0.39154  1
 S  S2  1  0.60846  0.60846  0.60846  1
