CIF file written using JARVIS-Tools package.
data_AgBiSCl2
_symmetry_space_group_name_H-M  'Cmcm'
_cell_length_a       4.03691
_cell_length_b       7.18985
_cell_length_c       8.72961
_cell_angle_alpha    90
_cell_angle_beta     90
_cell_angle_gamma    106.304

_symmetry_Int_Tables_number  63
_chemical_formula_structural  AgBiSCl2
_chemical_formula_sum  Ag2Bi2S2Cl4
_cell_volume  243.18547076543737
_cell_formula_units_Z  2
loop_
  _symmetry_equiv_pos_site_id
 _symmetry_equiv_pos_as_xyz
 1  'x, y, z'
loop_
 _atom_site_type_symbol
 _atom_site_label
 _atom_site_symmetry_multiplicity
 _atom_site_fract_x
 _atom_site_fract_y
 _atom_site_fract_z
 _atom_site_fract_occupancy
 Ag  Ag1  1  0.00000  0.00000  0.50000  1
 Ag  Ag2  1  0.00000  0.00000  0.00000  1
 Bi  Bi1  1  0.28756  0.57511  0.75000  1
 Bi  Bi2  1  0.71244  0.42489  0.25000  1
 Cl  Cl1  1  0.65821  0.31642  0.56437  1
 Cl  Cl2  1  0.34179  0.68358  0.43563  1
 Cl  Cl3  1  0.34179  0.68358  0.06437  1
 Cl  Cl4  1  0.65821  0.31642  0.93563  1
 S  S1  1  0.91906  0.83812  0.75000  1
 S  S2  1  0.08094  0.16188  0.25000  1
