CIF file written using JARVIS-Tools package.
data_Li2CoO2
_symmetry_space_group_name_H-M  'P-3m1'
_cell_length_a       3.098
_cell_length_b       5.35487
_cell_length_c       5.13386
_cell_angle_alpha    89.9443
_cell_angle_beta     89.9997
_cell_angle_gamma    89.9995

_symmetry_Int_Tables_number  164
_chemical_formula_structural  Li2CoO2
_chemical_formula_sum  Li4Co2O4
_cell_volume  85.16749217510105
_cell_formula_units_Z  2
loop_
  _symmetry_equiv_pos_site_id
 _symmetry_equiv_pos_as_xyz
 1  'x, y, z'
loop_
 _atom_site_type_symbol
 _atom_site_label
 _atom_site_symmetry_multiplicity
 _atom_site_fract_x
 _atom_site_fract_y
 _atom_site_fract_z
 _atom_site_fract_occupancy
 Co  Co1  1  0.99998  0.00002  0.00000  1
 Co  Co2  1  0.49998  0.50002  0.00000  1
 Li  Li1  1  0.49998  0.16681  0.64201  1
 Li  Li2  1  -0.00002  0.66681  0.64198  1
 Li  Li3  1  0.49998  0.83323  0.35799  1
 Li  Li4  1  0.99998  0.33323  0.35802  1
 O  O1  1  0.49998  0.16690  0.24038  1
 O  O2  1  -0.00001  0.66689  0.24038  1
 O  O3  1  0.49998  0.83315  0.75961  1
 O  O4  1  0.99997  0.33315  0.75962  1
