CIF file written using JARVIS-Tools package.
data_KNiTeO6
_symmetry_space_group_name_H-M  'P312'
_cell_length_a       5.05583
_cell_length_b       5.05582
_cell_length_c       5.96076
_cell_angle_alpha    90
_cell_angle_beta     90
_cell_angle_gamma    120

_symmetry_Int_Tables_number  149
_chemical_formula_structural  KNiTeO6
_chemical_formula_sum  KNiTeO6
_cell_volume  131.95226642743307
_cell_formula_units_Z  1
loop_
  _symmetry_equiv_pos_site_id
 _symmetry_equiv_pos_as_xyz
 1  'x, y, z'
loop_
 _atom_site_type_symbol
 _atom_site_label
 _atom_site_symmetry_multiplicity
 _atom_site_fract_x
 _atom_site_fract_y
 _atom_site_fract_z
 _atom_site_fract_occupancy
 K  K1  1  0.00000  0.00000  0.00000  1
 Ni  Ni1  1  0.33333  0.66667  0.50000  1
 O  O1  1  0.37244  0.98792  0.68197  1
 O  O2  1  0.01208  0.38452  0.68197  1
 O  O3  1  0.61548  0.62756  0.68197  1
 O  O4  1  0.01208  0.62756  0.31803  1
 O  O5  1  0.61548  0.98792  0.31803  1
 O  O6  1  0.37244  0.38452  0.31803  1
 Te  Te1  1  0.66667  0.33333  0.50000  1
