CIF file written using JARVIS-Tools package.
data_Ba3SrTa2O9
_symmetry_space_group_name_H-M  'P6_3/m'
_cell_length_a       6.1362
_cell_length_b       6.1362
_cell_length_c       15.4387
_cell_angle_alpha    90
_cell_angle_beta     90
_cell_angle_gamma    120

_symmetry_Int_Tables_number  176
_chemical_formula_structural  Ba3SrTa2O9
_chemical_formula_sum  Ba6Sr2Ta4O8
_cell_volume  503.43343421970474
_cell_formula_units_Z  2
loop_
  _symmetry_equiv_pos_site_id
 _symmetry_equiv_pos_as_xyz
 1  'x, y, z'
loop_
 _atom_site_type_symbol
 _atom_site_label
 _atom_site_symmetry_multiplicity
 _atom_site_fract_x
 _atom_site_fract_y
 _atom_site_fract_z
 _atom_site_fract_occupancy
 Ba  Ba1  1  0.00000  0.00000  0.25000  1
 Ba  Ba2  1  0.00000  0.00000  0.75000  1
 Ba  Ba3  1  0.33333  0.66667  0.11696  1
 Ba  Ba4  1  0.66667  0.33333  0.61696  1
 Ba  Ba5  1  0.66667  0.33333  0.88304  1
 Ba  Ba6  1  0.33333  0.66667  0.38304  1
 O  O1  1  0.11488  0.75953  0.59720  1
 O  O2  1  0.52505  0.56958  0.75000  1
 O  O3  1  0.35535  0.11488  0.09720  1
 O  O4  1  0.04453  0.47495  0.75000  1
 O  O5  1  0.24047  0.35535  0.90280  1
 O  O6  1  0.47495  0.43042  0.25000  1
 O  O7  1  0.88512  0.24047  0.09720  1
 O  O8  1  0.43042  0.95547  0.75000  1
 O  O9  1  0.95547  0.52505  0.25000  1
 O  O10  1  0.56958  0.04453  0.25000  1
 O  O11  1  0.75953  0.64465  0.09720  1
 O  O12  1  0.75953  0.64465  0.40280  1
 O  O13  1  0.64465  0.88512  0.90280  1
 O  O14  1  0.24047  0.35535  0.59720  1
 O  O15  1  0.88512  0.24047  0.40280  1
 O  O16  1  0.11488  0.75953  0.90280  1
 O  O17  1  0.64465  0.88512  0.59720  1
 O  O18  1  0.35535  0.11488  0.40280  1
 Sr  Sr1  1  0.00000  0.00000  0.50000  1
 Sr  Sr2  1  0.00000  0.00000  0.00000  1
 Ta  Ta1  1  0.33333  0.66667  0.84605  1
 Ta  Ta2  1  0.66667  0.33333  0.34605  1
 Ta  Ta3  1  0.66667  0.33333  0.15395  1
 Ta  Ta4  1  0.33333  0.66667  0.65395  1
