CIF file written using JARVIS-Tools package.
data_YbZnGe
_symmetry_space_group_name_H-M  'C2/m'
_cell_length_a       5.58384
_cell_length_b       5.58385
_cell_length_c       7.09857
_cell_angle_alpha    51.9957
_cell_angle_beta     51.9957
_cell_angle_gamma    46.4043

_symmetry_Int_Tables_number  12
_chemical_formula_structural  YbZnGe
_chemical_formula_sum  Yb2Zn2Ge2
_cell_volume  119.0083921524698
_cell_formula_units_Z  2
loop_
  _symmetry_equiv_pos_site_id
 _symmetry_equiv_pos_as_xyz
 1  'x, y, z'
loop_
 _atom_site_type_symbol
 _atom_site_label
 _atom_site_symmetry_multiplicity
 _atom_site_fract_x
 _atom_site_fract_y
 _atom_site_fract_z
 _atom_site_fract_occupancy
 Ge  Ge1  1  0.16476  0.16476  0.79241  1
 Ge  Ge2  1  0.83524  0.83524  0.20759  1
 Yb  Yb1  1  0.46105  0.46105  0.79217  1
 Yb  Yb2  1  0.53895  0.53895  0.20783  1
 Zn  Zn1  1  0.84147  0.84147  0.59677  1
 Zn  Zn2  1  0.15853  0.15853  0.40323  1
