CIF file written using JARVIS-Tools package.
data_Ta2SnO6
_symmetry_space_group_name_H-M  'C2/c'
_cell_length_a       4.90607
_cell_length_b       5.59931
_cell_length_c       9.02626
_cell_angle_alpha    91.2136
_cell_angle_beta     105.768
_cell_angle_gamma    90.0017

_symmetry_Int_Tables_number  15
_chemical_formula_structural  Ta2SnO6
_chemical_formula_sum  Ta4Sn2O2
_cell_volume  238.56788526777686
_cell_formula_units_Z  2
loop_
  _symmetry_equiv_pos_site_id
 _symmetry_equiv_pos_as_xyz
 1  'x, y, z'
loop_
 _atom_site_type_symbol
 _atom_site_label
 _atom_site_symmetry_multiplicity
 _atom_site_fract_x
 _atom_site_fract_y
 _atom_site_fract_z
 _atom_site_fract_occupancy
 O  O1  1  0.28125  0.35400  0.43854  1
 O  O2  1  0.68463  0.43132  0.28746  1
 O  O3  1  0.31604  0.57264  0.71383  1
 O  O4  1  0.15729  0.85400  0.43854  1
 O  O5  1  0.60283  0.93132  0.28746  1
 O  O6  1  0.71941  0.64993  0.56275  1
 O  O7  1  0.15410  0.59756  0.14635  1
 O  O8  1  0.00839  0.90636  0.85494  1
 O  O9  1  0.39780  0.07264  0.71383  1
 O  O10  1  0.99224  0.09756  0.14635  1
 O  O11  1  0.84335  0.14993  0.56275  1
 O  O12  1  0.84655  0.40636  0.85493  1
 Sn  Sn1  1  0.76549  0.75195  0.00065  1
 Sn  Sn2  1  0.23516  0.25196  0.00064  1
 Ta  Ta1  1  0.92721  0.16590  0.34046  1
 Ta  Ta2  1  0.41324  0.66589  0.34046  1
 Ta  Ta3  1  0.58741  0.33805  0.66082  1
 Ta  Ta4  1  0.07344  0.83804  0.66083  1
