CIF file written using JARVIS-Tools package.
data_BaSnGe3O9
_symmetry_space_group_name_H-M  'P-6c2'
_cell_length_a       6.9916
_cell_length_b       6.9916
_cell_length_c       10.4065
_cell_angle_alpha    90
_cell_angle_beta     90
_cell_angle_gamma    120

_symmetry_Int_Tables_number  188
_chemical_formula_structural  BaSnGe3O9
_chemical_formula_sum  Ba2Sn2Ge6O8
_cell_volume  440.5447539827532
_cell_formula_units_Z  2
loop_
  _symmetry_equiv_pos_site_id
 _symmetry_equiv_pos_as_xyz
 1  'x, y, z'
loop_
 _atom_site_type_symbol
 _atom_site_label
 _atom_site_symmetry_multiplicity
 _atom_site_fract_x
 _atom_site_fract_y
 _atom_site_fract_z
 _atom_site_fract_occupancy
 Ba  Ba1  1  0.66667  0.33333  0.00000  1
 Ba  Ba2  1  0.66667  0.33333  0.50000  1
 Ge  Ge1  1  0.70531  0.92700  0.75000  1
 Ge  Ge2  1  0.22169  0.29469  0.75000  1
 Ge  Ge3  1  0.22169  0.92700  0.25000  1
 Ge  Ge4  1  0.07300  0.77831  0.75000  1
 Ge  Ge5  1  0.07300  0.29469  0.25000  1
 Ge  Ge6  1  0.70531  0.77831  0.25000  1
 O  O1  1  0.93397  0.20622  0.75000  1
 O  O2  1  0.79378  0.06603  0.25000  1
 O  O3  1  0.27225  0.06603  0.75000  1
 O  O4  1  0.79378  0.72775  0.75000  1
 O  O5  1  0.07355  0.64182  0.60840  1
 O  O6  1  0.93397  0.72775  0.25000  1
 O  O7  1  0.27225  0.20622  0.25000  1
 O  O8  1  0.07355  0.64182  0.89160  1
 O  O9  1  0.56827  0.92645  0.60840  1
 O  O10  1  0.07355  0.43173  0.10840  1
 O  O11  1  0.56827  0.64182  0.10840  1
 O  O12  1  0.35818  0.92645  0.10840  1
 O  O13  1  0.35818  0.43173  0.60840  1
 O  O14  1  0.35818  0.92645  0.39160  1
 O  O15  1  0.07355  0.43173  0.39160  1
 O  O16  1  0.56827  0.92645  0.89160  1
 O  O17  1  0.35818  0.43173  0.89160  1
 O  O18  1  0.56827  0.64182  0.39160  1
 Sn  Sn1  1  0.33333  0.66667  0.50000  1
 Sn  Sn2  1  0.33333  0.66667  0.00000  1
