CIF file written using JARVIS-Tools package.
data_AlInSb2
_symmetry_space_group_name_H-M  'R3m'
_cell_length_a       7.86562
_cell_length_b       7.86563
_cell_length_c       7.86562
_cell_angle_alpha    33.5011
_cell_angle_beta     33.5011
_cell_angle_gamma    33.5011

_symmetry_Int_Tables_number  160
_chemical_formula_structural  AlInSb2
_chemical_formula_sum  AlInSb2
_cell_volume  132.04041239331463
_cell_formula_units_Z  1
loop_
  _symmetry_equiv_pos_site_id
 _symmetry_equiv_pos_as_xyz
 1  'x, y, z'
loop_
 _atom_site_type_symbol
 _atom_site_label
 _atom_site_symmetry_multiplicity
 _atom_site_fract_x
 _atom_site_fract_y
 _atom_site_fract_z
 _atom_site_fract_occupancy
 Al  Al1  1  0.99961  0.99961  0.99961  1
 In  In1  1  0.50073  0.50073  0.50073  1
 Sb  Sb1  1  0.12041  0.12041  0.12041  1
 Sb  Sb2  1  0.62925  0.62925  0.62925  1
