CIF file written using JARVIS-Tools package.
data_Ce2Ga5Au3
_symmetry_space_group_name_H-M  'P-4m2'
_cell_length_a       4.30621
_cell_length_b       4.30621
_cell_length_c       11.2846
_cell_angle_alpha    90
_cell_angle_beta     90
_cell_angle_gamma    90

_symmetry_Int_Tables_number  115
_chemical_formula_structural  Ce2Ga5Au3
_chemical_formula_sum  Ce2Ga5Au3
_cell_volume  209.25466561213216
_cell_formula_units_Z  1
loop_
  _symmetry_equiv_pos_site_id
 _symmetry_equiv_pos_as_xyz
 1  'x, y, z'
loop_
 _atom_site_type_symbol
 _atom_site_label
 _atom_site_symmetry_multiplicity
 _atom_site_fract_x
 _atom_site_fract_y
 _atom_site_fract_z
 _atom_site_fract_occupancy
 Au  Au1  1  0.50000  0.00000  0.65226  1
 Au  Au2  1  0.00000  0.50000  0.34774  1
 Au  Au3  1  0.00000  0.00000  0.50000  1
 Ce  Ce1  1  0.50000  0.00000  0.24878  1
 Ce  Ce2  1  0.00000  0.50000  0.75122  1
 Ga  Ga1  1  0.50000  0.50000  0.00000  1
 Ga  Ga2  1  0.00000  0.00000  0.00000  1
 Ga  Ga3  1  0.50000  0.00000  0.87167  1
 Ga  Ga4  1  0.00000  0.50000  0.12833  1
 Ga  Ga5  1  0.50000  0.50000  0.50000  1
