CIF file written using JARVIS-Tools package.
data_LiNiO2
_symmetry_space_group_name_H-M  'R-3m'
_cell_length_a       2.8835
_cell_length_b       2.88351
_cell_length_c       4.96642
_cell_angle_alpha    73.1168
_cell_angle_beta     73.1168
_cell_angle_gamma    59.991

_symmetry_Int_Tables_number  166
_chemical_formula_structural  LiNiO2
_chemical_formula_sum  LiNiO2
_cell_volume  33.68794668290995
_cell_formula_units_Z  1
loop_
  _symmetry_equiv_pos_site_id
 _symmetry_equiv_pos_as_xyz
 1  'x, y, z'
loop_
 _atom_site_type_symbol
 _atom_site_label
 _atom_site_symmetry_multiplicity
 _atom_site_fract_x
 _atom_site_fract_y
 _atom_site_fract_z
 _atom_site_fract_occupancy
 Li  Li1  1  0.50000  0.50000  0.50000  1
 Ni  Ni1  1  1.00000  1.00000  0.00000  1
 O  O1  1  0.25857  0.25858  0.22431  1
 O  O2  1  0.74142  0.74142  0.77569  1
