CIF file written using JARVIS-Tools package.
data_KNa3WO5
_symmetry_space_group_name_H-M  'C2/m'
_cell_length_a       5.86425
_cell_length_b       5.86425
_cell_length_c       9.08184
_cell_angle_alpha    79.1512
_cell_angle_beta     79.1512
_cell_angle_gamma    79.2863

_symmetry_Int_Tables_number  12
_chemical_formula_structural  KNa3WO5
_chemical_formula_sum  K2Na6W2O0
_cell_volume  297.56603016497604
_cell_formula_units_Z  2
loop_
  _symmetry_equiv_pos_site_id
 _symmetry_equiv_pos_as_xyz
 1  'x, y, z'
loop_
 _atom_site_type_symbol
 _atom_site_label
 _atom_site_symmetry_multiplicity
 _atom_site_fract_x
 _atom_site_fract_y
 _atom_site_fract_z
 _atom_site_fract_occupancy
 K  K1  1  0.74943  0.25057  0.50000  1
 K  K2  1  0.25057  0.74943  0.50000  1
 Na  Na1  1  0.64887  0.15682  0.88807  1
 Na  Na2  1  0.84318  0.35113  0.11193  1
 Na  Na3  1  0.35113  0.84318  0.11193  1
 Na  Na4  1  0.19029  0.19029  0.72789  1
 Na  Na5  1  0.15682  0.64887  0.88807  1
 Na  Na6  1  0.80971  0.80971  0.27211  1
 O  O1  1  0.11646  0.55540  0.15500  1
 O  O2  1  0.88354  0.44460  0.84500  1
 O  O3  1  0.47711  0.47711  0.74184  1
 O  O4  1  0.09703  0.09703  0.25140  1
 O  O5  1  0.44460  0.88354  0.84500  1
 O  O6  1  0.55540  0.11646  0.15500  1
 O  O7  1  0.25454  0.25454  0.46824  1
 O  O8  1  0.90297  0.90297  0.74860  1
 O  O9  1  0.52289  0.52289  0.25816  1
 O  O10  1  0.74546  0.74546  0.53176  1
 W  W1  1  0.30886  0.30886  0.25939  1
 W  W2  1  0.69114  0.69114  0.74061  1
