CIF file written using JARVIS-Tools package.
data_AlAs
_symmetry_space_group_name_H-M  'P4/mmm'
_cell_length_a       2.75333
_cell_length_b       2.75333
_cell_length_c       5.37194
_cell_angle_alpha    90
_cell_angle_beta     90
_cell_angle_gamma    90

_symmetry_Int_Tables_number  123
_chemical_formula_structural  AlAs
_chemical_formula_sum  AlAs
_cell_volume  40.72371847399334
_cell_formula_units_Z  1
loop_
  _symmetry_equiv_pos_site_id
 _symmetry_equiv_pos_as_xyz
 1  'x, y, z'
loop_
 _atom_site_type_symbol
 _atom_site_label
 _atom_site_symmetry_multiplicity
 _atom_site_fract_x
 _atom_site_fract_y
 _atom_site_fract_z
 _atom_site_fract_occupancy
 Al  Al1  1  0.17501  0.00000  0.50000  1
 As  As1  1  0.17499  0.00000  0.00000  1
