CIF file written using JARVIS-Tools package.
data_Li4CoO4
_symmetry_space_group_name_H-M  'P4_22_12'
_cell_length_a       6.19407
_cell_length_b       6.19407
_cell_length_c       4.70709
_cell_angle_alpha    90
_cell_angle_beta     90
_cell_angle_gamma    90

_symmetry_Int_Tables_number  94
_chemical_formula_structural  Li4CoO4
_chemical_formula_sum  Li8Co2O8
_cell_volume  180.59478094179045
_cell_formula_units_Z  2
loop_
  _symmetry_equiv_pos_site_id
 _symmetry_equiv_pos_as_xyz
 1  'x, y, z'
loop_
 _atom_site_type_symbol
 _atom_site_label
 _atom_site_symmetry_multiplicity
 _atom_site_fract_x
 _atom_site_fract_y
 _atom_site_fract_z
 _atom_site_fract_occupancy
 Co  Co1  1  0.50000  0.50000  0.00000  1
 Co  Co2  1  0.00000  0.00000  0.50000  1
 Li  Li1  1  0.69900  0.69900  0.50000  1
 Li  Li2  1  0.00000  0.50000  0.05948  1
 Li  Li3  1  0.00000  0.50000  0.55948  1
 Li  Li4  1  0.19900  0.80100  0.00000  1
 Li  Li5  1  0.80100  0.19900  0.00000  1
 Li  Li6  1  0.50000  0.00000  0.94052  1
 Li  Li7  1  0.50000  0.00000  0.44052  1
 Li  Li8  1  0.30100  0.30100  0.50000  1
 O  O1  1  0.75207  0.48563  0.79901  1
 O  O2  1  0.48563  0.75207  0.20099  1
 O  O3  1  0.74793  0.98563  0.70099  1
 O  O4  1  0.25207  0.01437  0.70099  1
 O  O5  1  0.51437  0.24793  0.20099  1
 O  O6  1  0.01437  0.25207  0.29901  1
 O  O7  1  0.24793  0.51437  0.79901  1
 O  O8  1  0.98563  0.74793  0.29901  1
