CIF file written using JARVIS-Tools package.
data_BaSiF6
_symmetry_space_group_name_H-M  'R-3m'
_cell_length_a       4.79366
_cell_length_b       4.79366
_cell_length_c       4.79366
_cell_angle_alpha    98.0284
_cell_angle_beta     98.0284
_cell_angle_gamma    98.0285

_symmetry_Int_Tables_number  166
_chemical_formula_structural  BaSiF6
_chemical_formula_sum  BaSiF6
_cell_volume  106.57312395625141
_cell_formula_units_Z  1
loop_
  _symmetry_equiv_pos_site_id
 _symmetry_equiv_pos_as_xyz
 1  'x, y, z'
loop_
 _atom_site_type_symbol
 _atom_site_label
 _atom_site_symmetry_multiplicity
 _atom_site_fract_x
 _atom_site_fract_y
 _atom_site_fract_z
 _atom_site_fract_occupancy
 Ba  Ba1  1  0.50000  0.50000  0.50000  1
 F  F1  1  0.74559  0.74559  0.07748  1
 F  F2  1  0.74559  0.07748  0.74559  1
 F  F3  1  0.25441  0.92252  0.25441  1
 F  F4  1  0.25441  0.25441  0.92252  1
 F  F5  1  0.92252  0.25441  0.25441  1
 F  F6  1  0.07748  0.74559  0.74559  1
 Si  Si1  1  0.00000  0.00000  0.00000  1
