CIF file written using JARVIS-Tools package.
data_YAl3B4O12
_symmetry_space_group_name_H-M  'R32'
_cell_length_a       5.91759
_cell_length_b       5.91758
_cell_length_c       5.91758
_cell_angle_alpha    104.427
_cell_angle_beta     104.427
_cell_angle_gamma    104.427

_symmetry_Int_Tables_number  155
_chemical_formula_structural  YAl3B4O12
_chemical_formula_sum  YAl3B4O2
_cell_volume  183.3460440677145
_cell_formula_units_Z  1
loop_
  _symmetry_equiv_pos_site_id
 _symmetry_equiv_pos_as_xyz
 1  'x, y, z'
loop_
 _atom_site_type_symbol
 _atom_site_label
 _atom_site_symmetry_multiplicity
 _atom_site_fract_x
 _atom_site_fract_y
 _atom_site_fract_z
 _atom_site_fract_occupancy
 Al  Al1  1  -0.00000  0.55557  0.44443  1
 Al  Al2  1  0.44443  -0.00000  0.55557  1
 Al  Al3  1  0.55557  0.44443  0.00000  1
 B  B1  1  0.05669  0.50000  0.94331  1
 B  B2  1  0.50000  0.50000  0.50000  1
 B  B3  1  0.94331  0.05669  0.50000  1
 B  B4  1  0.50000  0.94331  0.05669  1
 O  O1  1  0.62814  0.77958  0.02889  1
 O  O2  1  0.37186  0.97111  0.22042  1
 O  O3  1  0.97111  0.22042  0.37186  1
 O  O4  1  0.90863  0.50000  0.09137  1
 O  O5  1  0.50000  0.09137  0.90863  1
 O  O6  1  0.09137  0.90863  0.50000  1
 O  O7  1  0.50000  0.35150  0.64850  1
 O  O8  1  0.35150  0.64850  0.50000  1
 O  O9  1  0.02889  0.62814  0.77958  1
 O  O10  1  0.22042  0.37186  0.97111  1
 O  O11  1  0.77958  0.02889  0.62814  1
 O  O12  1  0.64850  0.50000  0.35150  1
 Y  Y1  1  0.00000  0.00000  0.00000  1
