CIF file written using JARVIS-Tools package.
data_NaLiZnS2
_symmetry_space_group_name_H-M  'P3m1'
_cell_length_a       3.96325
_cell_length_b       3.96326
_cell_length_c       6.7533
_cell_angle_alpha    90
_cell_angle_beta     90
_cell_angle_gamma    120

_symmetry_Int_Tables_number  156
_chemical_formula_structural  NaLiZnS2
_chemical_formula_sum  NaLiZnS2
_cell_volume  91.8650979662642
_cell_formula_units_Z  1
loop_
  _symmetry_equiv_pos_site_id
 _symmetry_equiv_pos_as_xyz
 1  'x, y, z'
loop_
 _atom_site_type_symbol
 _atom_site_label
 _atom_site_symmetry_multiplicity
 _atom_site_fract_x
 _atom_site_fract_y
 _atom_site_fract_z
 _atom_site_fract_occupancy
 Li  Li1  1  0.00000  0.00000  0.35475  1
 Na  Na1  1  0.66667  0.33333  0.02381  1
 S  S1  1  0.00000  0.00000  0.73907  1
 S  S2  1  0.33333  0.66667  0.26894  1
 Zn  Zn1  1  0.33333  0.66667  0.61342  1
