CIF file written using JARVIS-Tools package.
data_Ti2Ga3
_symmetry_space_group_name_H-M  'P4/m'
_cell_length_a       6.2887
_cell_length_b       6.2887
_cell_length_c       3.98431
_cell_angle_alpha    90
_cell_angle_beta     90
_cell_angle_gamma    90

_symmetry_Int_Tables_number  83
_chemical_formula_structural  Ti2Ga3
_chemical_formula_sum  Ti4Ga6
_cell_volume  157.57088669089796
_cell_formula_units_Z  2
loop_
  _symmetry_equiv_pos_site_id
 _symmetry_equiv_pos_as_xyz
 1  'x, y, z'
loop_
 _atom_site_type_symbol
 _atom_site_label
 _atom_site_symmetry_multiplicity
 _atom_site_fract_x
 _atom_site_fract_y
 _atom_site_fract_z
 _atom_site_fract_occupancy
 Ga  Ga1  1  0.81871  0.39518  0.00000  1
 Ga  Ga2  1  0.60482  0.81871  0.00000  1
 Ga  Ga3  1  0.18129  0.60482  0.00000  1
 Ga  Ga4  1  0.39518  0.18129  0.00000  1
 Ga  Ga5  1  0.50000  0.50000  0.50000  1
 Ga  Ga6  1  0.00000  0.00000  0.00000  1
 Ti  Ti1  1  0.87209  0.69687  0.50000  1
 Ti  Ti2  1  0.69687  0.12791  0.50000  1
 Ti  Ti3  1  0.30313  0.87209  0.50000  1
 Ti  Ti4  1  0.12791  0.30313  0.50000  1
