CIF file written using JARVIS-Tools package.
data_Ho2Ti3Si4
_symmetry_space_group_name_H-M  'P4_12_12'
_cell_length_a       7.05452
_cell_length_b       7.05452
_cell_length_c       12.9481
_cell_angle_alpha    90
_cell_angle_beta     90
_cell_angle_gamma    90

_symmetry_Int_Tables_number  92
_chemical_formula_structural  Ho2Ti3Si4
_chemical_formula_sum  Ho8Ti2Si6
_cell_volume  644.3789388662266
_cell_formula_units_Z  4
loop_
  _symmetry_equiv_pos_site_id
 _symmetry_equiv_pos_as_xyz
 1  'x, y, z'
loop_
 _atom_site_type_symbol
 _atom_site_label
 _atom_site_symmetry_multiplicity
 _atom_site_fract_x
 _atom_site_fract_y
 _atom_site_fract_z
 _atom_site_fract_occupancy
 Ho  Ho1  1  0.34036  0.00166  0.46695  1
 Ho  Ho2  1  0.49834  0.84036  0.71695  1
 Ho  Ho3  1  0.50165  0.15964  0.21695  1
 Ho  Ho4  1  0.84036  0.49834  0.28305  1
 Ho  Ho5  1  0.15964  0.50165  0.78305  1
 Ho  Ho6  1  0.65964  0.99835  0.96695  1
 Ho  Ho7  1  0.00166  0.34036  0.53305  1
 Ho  Ho8  1  0.99835  0.65964  0.03305  1
 Si  Si1  1  0.45483  0.20888  0.81493  1
 Si  Si2  1  0.54517  0.79112  0.31493  1
 Si  Si3  1  0.29112  0.95483  0.06493  1
 Si  Si4  1  0.86960  0.79749  0.81693  1
 Si  Si5  1  0.29749  0.63040  0.56693  1
 Si  Si6  1  0.36960  0.70251  0.93307  1
 Si  Si7  1  0.70251  0.36960  0.06693  1
 Si  Si8  1  0.63040  0.29749  0.43307  1
 Si  Si9  1  0.79112  0.54517  0.68507  1
 Si  Si10  1  0.20251  0.13040  0.68307  1
 Si  Si11  1  0.95483  0.29112  0.93507  1
 Si  Si12  1  0.79749  0.86960  0.18307  1
 Si  Si13  1  0.20888  0.45483  0.18507  1
 Si  Si14  1  0.04517  0.70888  0.43507  1
 Si  Si15  1  0.13040  0.20251  0.31693  1
 Si  Si16  1  0.70888  0.04517  0.56493  1
 Ti  Ti1  1  0.49267  0.65294  0.12590  1
 Ti  Ti2  1  0.32777  0.32777  0.00000  1
 Ti  Ti3  1  0.82777  0.17223  0.75000  1
 Ti  Ti4  1  0.67223  0.67223  0.50000  1
 Ti  Ti5  1  0.15294  0.00733  0.87590  1
 Ti  Ti6  1  0.84706  0.99267  0.37590  1
 Ti  Ti7  1  0.50733  0.34706  0.62590  1
 Ti  Ti8  1  0.65294  0.49267  0.87410  1
 Ti  Ti9  1  0.34706  0.50733  0.37410  1
 Ti  Ti10  1  0.00733  0.15294  0.12410  1
 Ti  Ti11  1  0.99267  0.84706  0.62410  1
 Ti  Ti12  1  0.17223  0.82777  0.25000  1
