CIF file written using JARVIS-Tools package.
data_Ca2InPt2
_symmetry_space_group_name_H-M  'C2/c'
_cell_length_a       5.66336
_cell_length_b       5.82621
_cell_length_c       8.1826
_cell_angle_alpha    103.209
_cell_angle_beta     90
_cell_angle_gamma    119.08

_symmetry_Int_Tables_number  15
_chemical_formula_structural  Ca2InPt2
_chemical_formula_sum  Ca4In2Pt4
_cell_volume  227.75027411008222
_cell_formula_units_Z  2
loop_
  _symmetry_equiv_pos_site_id
 _symmetry_equiv_pos_as_xyz
 1  'x, y, z'
loop_
 _atom_site_type_symbol
 _atom_site_label
 _atom_site_symmetry_multiplicity
 _atom_site_fract_x
 _atom_site_fract_y
 _atom_site_fract_z
 _atom_site_fract_occupancy
 Ca  Ca1  1  0.20055  0.70252  0.35042  1
 Ca  Ca2  1  0.49803  0.29748  0.14958  1
 Ca  Ca3  1  0.79945  0.29748  0.64958  1
 Ca  Ca4  1  0.50197  0.70252  0.85042  1
 In  In1  1  0.83776  -0.00000  0.25000  1
 In  In2  1  0.16224  0.00000  0.75000  1
 Pt  Pt1  1  0.00242  0.72659  0.99735  1
 Pt  Pt2  1  0.27583  0.27341  0.50265  1
 Pt  Pt3  1  0.99758  0.27341  0.00265  1
 Pt  Pt4  1  0.72417  0.72659  0.49735  1
