CIF file written using JARVIS-Tools package.
data_Rb2Mo3O10
_symmetry_space_group_name_H-M  'C2/c'
_cell_length_a       8.08853
_cell_length_b       8.16823
_cell_length_c       9.22381
_cell_angle_alpha    97.3502
_cell_angle_beta     90
_cell_angle_gamma    119.678

_symmetry_Int_Tables_number  15
_chemical_formula_structural  Rb2Mo3O10
_chemical_formula_sum  Rb4Mo6O20
_cell_volume  523.6962888102466
_cell_formula_units_Z  2
loop_
  _symmetry_equiv_pos_site_id
 _symmetry_equiv_pos_as_xyz
 1  'x, y, z'
loop_
 _atom_site_type_symbol
 _atom_site_label
 _atom_site_symmetry_multiplicity
 _atom_site_fract_x
 _atom_site_fract_y
 _atom_site_fract_z
 _atom_site_fract_occupancy
 Mo  Mo1  1  0.96585  0.78348  0.47758  1
 Mo  Mo2  1  0.29368  0.00000  0.25000  1
 Mo  Mo3  1  0.81763  0.78348  0.97758  1
 Mo  Mo4  1  0.70632  -0.00000  0.75000  1
 Mo  Mo5  1  0.18237  0.21652  0.02242  1
 Mo  Mo6  1  0.03415  0.21652  0.52242  1
 O  O1  1  0.05809  0.94971  0.09221  1
 O  O2  1  0.10838  0.05029  0.40779  1
 O  O3  1  0.94191  0.05029  0.90779  1
 O  O4  1  0.62534  0.10430  0.88402  1
 O  O5  1  0.26059  0.40405  0.58269  1
 O  O6  1  0.89162  0.94971  0.59221  1
 O  O7  1  0.88918  0.24031  0.68141  1
 O  O8  1  0.35113  0.24031  0.18141  1
 O  O9  1  0.11082  0.75969  0.31859  1
 O  O10  1  0.64887  0.75969  0.81859  1
 O  O11  1  0.33314  0.28248  0.88276  1
 O  O12  1  0.52103  0.89570  0.61598  1
 O  O13  1  0.73941  0.59595  0.41731  1
 O  O14  1  0.14346  0.40405  0.08269  1
 O  O15  1  0.05066  0.71752  0.61724  1
 O  O16  1  0.85654  0.59595  0.91731  1
 O  O17  1  0.37466  0.89570  0.11598  1
 O  O18  1  0.47897  0.10430  0.38402  1
 O  O19  1  0.94934  0.28248  0.38276  1
 O  O20  1  0.66686  0.71752  0.11724  1
 Rb  Rb1  1  0.59556  0.36534  0.65663  1
 Rb  Rb2  1  0.23022  0.63466  0.84337  1
 Rb  Rb3  1  0.40444  0.63466  0.34337  1
 Rb  Rb4  1  0.76978  0.36534  0.15663  1
