CIF file written using JARVIS-Tools package.
data_Na2YPCO7
_symmetry_space_group_name_H-M  'P2_1/m'
_cell_length_a       5.03532
_cell_length_b       6.97068
_cell_length_c       9.40208
_cell_angle_alpha    90
_cell_angle_beta     90.9755
_cell_angle_gamma    90

_symmetry_Int_Tables_number  11
_chemical_formula_structural  Na2YPCO7
_chemical_formula_sum  Na4Y2P2C2O4
_cell_volume  329.9613004886824
_cell_formula_units_Z  2
loop_
  _symmetry_equiv_pos_site_id
 _symmetry_equiv_pos_as_xyz
 1  'x, y, z'
loop_
 _atom_site_type_symbol
 _atom_site_label
 _atom_site_symmetry_multiplicity
 _atom_site_fract_x
 _atom_site_fract_y
 _atom_site_fract_z
 _atom_site_fract_occupancy
 C  C1  1  0.73031  0.75000  0.08207  1
 C  C2  1  0.26969  0.25000  0.91793  1
 Na  Na1  1  0.23318  0.48827  0.20881  1
 Na  Na2  1  0.23318  0.01173  0.20881  1
 Na  Na3  1  0.76682  0.51173  0.79119  1
 Na  Na4  1  0.76682  0.98827  0.79119  1
 O  O1  1  0.29985  0.25000  0.05112  1
 O  O2  1  0.03728  0.25000  0.85321  1
 O  O3  1  0.52723  0.75000  0.16933  1
 O  O4  1  0.81271  0.06797  0.34520  1
 O  O5  1  0.81271  0.43203  0.34520  1
 O  O6  1  0.96272  0.75000  0.14679  1
 O  O7  1  0.38579  0.25000  0.39679  1
 O  O8  1  0.61421  0.75000  0.60321  1
 O  O9  1  0.18729  0.93203  0.65480  1
 O  O10  1  0.18729  0.56797  0.65480  1
 O  O11  1  0.24380  0.75000  0.42333  1
 O  O12  1  0.47277  0.25000  0.83067  1
 O  O13  1  0.75620  0.25000  0.57667  1
 O  O14  1  0.70015  0.75000  0.94888  1
 P  P1  1  0.30547  0.75000  0.58805  1
 P  P2  1  0.69453  0.25000  0.41195  1
 Y  Y1  1  0.22898  0.25000  0.62618  1
 Y  Y2  1  0.77102  0.75000  0.37382  1
