CIF file written using JARVIS-Tools package.
data_Mo2SeS3
_symmetry_space_group_name_H-M  'P3m1'
_cell_length_a       3.22317
_cell_length_b       3.22317
_cell_length_c       34.0196
_cell_angle_alpha    90.0007
_cell_angle_beta     90
_cell_angle_gamma    120

_symmetry_Int_Tables_number  156
_chemical_formula_structural  Mo2SeS3
_chemical_formula_sum  Mo4Se2S6
_cell_volume  306.0748211238937
_cell_formula_units_Z  2
loop_
  _symmetry_equiv_pos_site_id
 _symmetry_equiv_pos_as_xyz
 1  'x, y, z'
loop_
 _atom_site_type_symbol
 _atom_site_label
 _atom_site_symmetry_multiplicity
 _atom_site_fract_x
 _atom_site_fract_y
 _atom_site_fract_z
 _atom_site_fract_occupancy
 Mo  Mo1  1  0.33331  0.66662  0.09671  1
 Mo  Mo2  1  0.33332  0.66664  0.46873  1
 Mo  Mo3  1  0.66668  0.33336  0.27935  1
 Mo  Mo4  1  0.66669  0.33338  0.65812  1
 S  S1  1  0.33333  0.66667  0.32512  1
 S  S2  1  0.33336  0.66673  0.70384  1
 S  S3  1  0.66664  0.33329  0.05099  1
 S  S4  1  0.66664  0.33329  0.14247  1
 S  S5  1  0.33335  0.66670  0.23360  1
 S  S6  1  0.33335  0.66669  0.61235  1
 Se  Se1  1  0.66664  0.33327  0.41844  1
 Se  Se2  1  0.66668  0.33335  0.51902  1
