CIF file written using JARVIS-Tools package.
data_U2SbTe
_symmetry_space_group_name_H-M  'R-3m'
_cell_length_a       7.17582
_cell_length_b       7.17582
_cell_length_c       7.17582
_cell_angle_alpha    36.8275
_cell_angle_beta     36.8274
_cell_angle_gamma    36.8275

_symmetry_Int_Tables_number  166
_chemical_formula_structural  U2SbTe
_chemical_formula_sum  U2SbTe
_cell_volume  118.91581041972638
_cell_formula_units_Z  1
loop_
  _symmetry_equiv_pos_site_id
 _symmetry_equiv_pos_as_xyz
 1  'x, y, z'
loop_
 _atom_site_type_symbol
 _atom_site_label
 _atom_site_symmetry_multiplicity
 _atom_site_fract_x
 _atom_site_fract_y
 _atom_site_fract_z
 _atom_site_fract_occupancy
 Sb  Sb1  1  0.00000  0.00000  0.00000  1
 Te  Te1  1  0.50000  0.50000  0.50000  1
 U  U1  1  0.25086  0.25086  0.25086  1
 U  U2  1  0.74914  0.74914  0.74914  1
