CIF file written using JARVIS-Tools package.
data_HoScO3
_symmetry_space_group_name_H-M  'Pnma'
_cell_length_a       5.41612
_cell_length_b       5.7281
_cell_length_c       7.91976
_cell_angle_alpha    90
_cell_angle_beta     90
_cell_angle_gamma    90

_symmetry_Int_Tables_number  62
_chemical_formula_structural  HoScO3
_chemical_formula_sum  Ho4Sc4O2
_cell_volume  245.70319167327844
_cell_formula_units_Z  4
loop_
  _symmetry_equiv_pos_site_id
 _symmetry_equiv_pos_as_xyz
 1  'x, y, z'
loop_
 _atom_site_type_symbol
 _atom_site_label
 _atom_site_symmetry_multiplicity
 _atom_site_fract_x
 _atom_site_fract_y
 _atom_site_fract_z
 _atom_site_fract_occupancy
 Ho  Ho1  1  0.02042  0.93541  0.25000  1
 Ho  Ho2  1  0.52042  0.56459  0.75000  1
 Ho  Ho3  1  0.47958  0.43541  0.25000  1
 Ho  Ho4  1  0.97958  0.06459  0.75000  1
 O  O1  1  0.86771  0.55772  0.25000  1
 O  O2  1  0.18921  0.19267  0.43128  1
 O  O3  1  0.63229  0.05772  0.25000  1
 O  O4  1  0.13229  0.44228  0.75000  1
 O  O5  1  0.36771  0.94228  0.75000  1
 O  O6  1  0.18921  0.19267  0.06872  1
 O  O7  1  0.81079  0.80733  0.56872  1
 O  O8  1  0.31079  0.69267  0.06872  1
 O  O9  1  0.68921  0.30733  0.93128  1
 O  O10  1  0.81079  0.80733  0.93128  1
 O  O11  1  0.31079  0.69267  0.43128  1
 O  O12  1  0.68921  0.30733  0.56872  1
 Sc  Sc1  1  0.00000  0.50000  0.50000  1
 Sc  Sc2  1  0.50000  0.00000  0.50000  1
 Sc  Sc3  1  0.50000  0.00000  0.00000  1
 Sc  Sc4  1  0.00000  0.50000  0.00000  1
