CIF file written using JARVIS-Tools package.
data_Ce2ZrO6
_symmetry_space_group_name_H-M  'Immm'
_cell_length_a       6.52939
_cell_length_b       6.52939
_cell_length_c       6.52939
_cell_angle_alpha    146.214
_cell_angle_beta     131.659
_cell_angle_gamma    60.2766

_symmetry_Int_Tables_number  71
_chemical_formula_structural  Ce2ZrO6
_chemical_formula_sum  Ce2ZrO6
_cell_volume  114.5734752872449
_cell_formula_units_Z  1
loop_
  _symmetry_equiv_pos_site_id
 _symmetry_equiv_pos_as_xyz
 1  'x, y, z'
loop_
 _atom_site_type_symbol
 _atom_site_label
 _atom_site_symmetry_multiplicity
 _atom_site_fract_x
 _atom_site_fract_y
 _atom_site_fract_z
 _atom_site_fract_occupancy
 Ce  Ce1  1  0.66443  0.66443  -0.00000  1
 Ce  Ce2  1  0.33557  0.33557  0.00000  1
 O  O1  1  0.59706  0.84014  0.75692  1
 O  O2  1  0.23485  0.50000  0.73485  1
 O  O3  1  0.91678  0.15986  0.75692  1
 O  O4  1  0.76515  0.50000  0.26515  1
 O  O5  1  0.40294  0.15986  0.24308  1
 O  O6  1  0.08322  0.84014  0.24308  1
 Zr  Zr1  1  0.00000  0.00000  0.00000  1
