CIF file written using JARVIS-Tools package.
data_Tb5Se2Cl3O10
_symmetry_space_group_name_H-M  'C2/m'
_cell_length_a       5.48532
_cell_length_b       6.67087
_cell_length_c       9.78411
_cell_angle_alpha    90.1043
_cell_angle_beta     90
_cell_angle_gamma    114.276

_symmetry_Int_Tables_number  12
_chemical_formula_structural  Tb5Se2Cl3O10
_chemical_formula_sum  Tb5Se2Cl3O0
_cell_volume  326.3595566147384
_cell_formula_units_Z  1
loop_
  _symmetry_equiv_pos_site_id
 _symmetry_equiv_pos_as_xyz
 1  'x, y, z'
loop_
 _atom_site_type_symbol
 _atom_site_label
 _atom_site_symmetry_multiplicity
 _atom_site_fract_x
 _atom_site_fract_y
 _atom_site_fract_z
 _atom_site_fract_occupancy
 Cl  Cl1  1  0.66461  0.32923  0.64707  1
 Cl  Cl2  1  0.33539  0.67077  0.35293  1
 Cl  Cl3  1  -0.00000  -0.00000  0.50000  1
 O  O1  1  0.68137  0.88599  0.79465  1
 O  O2  1  0.10058  0.71068  0.06054  1
 O  O3  1  0.20463  0.88599  0.79465  1
 O  O4  1  0.61011  0.71068  0.06054  1
 O  O5  1  0.79537  0.11401  0.20535  1
 O  O6  1  0.31863  0.11401  0.20535  1
 O  O7  1  0.89942  0.28932  0.93946  1
 O  O8  1  0.38989  0.28932  0.93946  1
 O  O9  1  0.72601  0.45202  0.29570  1
 O  O10  1  0.27399  0.54798  0.70430  1
 Se  Se1  1  0.58990  0.17980  0.32180  1
 Se  Se2  1  0.41010  0.82020  0.67820  1
 Tb  Tb1  1  0.78907  0.57813  0.89492  1
 Tb  Tb2  1  0.50000  0.00000  0.00000  1
 Tb  Tb3  1  0.09920  0.19841  0.76348  1
 Tb  Tb4  1  0.90080  0.80159  0.23652  1
 Tb  Tb5  1  0.21093  0.42187  0.10508  1
