CIF file written using JARVIS-Tools package.
data_LiBi3Cl2O4
_symmetry_space_group_name_H-M  'Amm2'
_cell_length_a       6.63514
_cell_length_b       6.63514
_cell_length_c       5.4872
_cell_angle_alpha    90
_cell_angle_beta     90
_cell_angle_gamma    131.08

_symmetry_Int_Tables_number  38
_chemical_formula_structural  LiBi3Cl2O4
_chemical_formula_sum  LiBi3Cl2O4
_cell_volume  182.09836457559067
_cell_formula_units_Z  1
loop_
  _symmetry_equiv_pos_site_id
 _symmetry_equiv_pos_as_xyz
 1  'x, y, z'
loop_
 _atom_site_type_symbol
 _atom_site_label
 _atom_site_symmetry_multiplicity
 _atom_site_fract_x
 _atom_site_fract_y
 _atom_site_fract_z
 _atom_site_fract_occupancy
 Bi  Bi1  1  0.14961  0.85039  0.00000  1
 Bi  Bi2  1  0.84114  0.15886  0.00000  1
 Bi  Bi3  1  0.34535  0.65465  0.50000  1
 Cl  Cl1  1  0.49536  0.50464  0.00000  1
 Cl  Cl2  1  0.98702  0.01298  0.50000  1
 Li  Li1  1  0.69608  0.30392  0.50000  1
 O  O1  1  0.49424  0.00152  0.75074  1
 O  O2  1  -0.00152  0.50576  0.24926  1
 O  O3  1  -0.00152  0.50576  0.75074  1
 O  O4  1  0.49424  0.00152  0.24926  1
