CIF file written using JARVIS-Tools package.
data_Pm2Mg
_symmetry_space_group_name_H-M  'Cmcm'
_cell_length_a       8.84651
_cell_length_b       8.84651
_cell_length_c       5.56322
_cell_angle_alpha    90
_cell_angle_beta     90
_cell_angle_gamma    155.366

_symmetry_Int_Tables_number  63
_chemical_formula_structural  Pm2Mg
_chemical_formula_sum  Pm4Mg2
_cell_volume  181.4787477066936
_cell_formula_units_Z  2
loop_
  _symmetry_equiv_pos_site_id
 _symmetry_equiv_pos_as_xyz
 1  'x, y, z'
loop_
 _atom_site_type_symbol
 _atom_site_label
 _atom_site_symmetry_multiplicity
 _atom_site_fract_x
 _atom_site_fract_y
 _atom_site_fract_z
 _atom_site_fract_occupancy
 Mg  Mg1  1  0.43147  0.56853  0.25000  1
 Mg  Mg2  1  0.56853  0.43147  0.75000  1
 Pm  Pm1  1  0.08870  0.91130  0.25000  1
 Pm  Pm2  1  0.77170  0.22830  0.25000  1
 Pm  Pm3  1  0.91130  0.08870  0.75000  1
 Pm  Pm4  1  0.22830  0.77170  0.75000  1
