CIF file written using JARVIS-Tools package.
data_YMoO4F
_symmetry_space_group_name_H-M  'P2_1/c'
_cell_length_a       5.22198
_cell_length_b       12.3116
_cell_length_c       6.68464
_cell_angle_alpha    90
_cell_angle_beta     113.026
_cell_angle_gamma    90

_symmetry_Int_Tables_number  14
_chemical_formula_structural  YMoO4F
_chemical_formula_sum  Y4Mo4O6F4
_cell_volume  395.52081586072967
_cell_formula_units_Z  4
loop_
  _symmetry_equiv_pos_site_id
 _symmetry_equiv_pos_as_xyz
 1  'x, y, z'
loop_
 _atom_site_type_symbol
 _atom_site_label
 _atom_site_symmetry_multiplicity
 _atom_site_fract_x
 _atom_site_fract_y
 _atom_site_fract_z
 _atom_site_fract_occupancy
 F  F1  1  0.45330  0.59960  0.53674  1
 F  F2  1  0.45330  0.90040  0.03674  1
 F  F3  1  0.54670  0.09960  0.96326  1
 F  F4  1  0.54670  0.40040  0.46326  1
 Mo  Mo1  1  0.07631  0.35603  0.12848  1
 Mo  Mo2  1  0.92369  0.85603  0.37152  1
 Mo  Mo3  1  0.07631  0.14397  0.62848  1
 Mo  Mo4  1  0.92369  0.64397  0.87152  1
 O  O1  1  0.23897  0.65445  0.09377  1
 O  O2  1  0.81020  0.77759  0.79432  1
 O  O3  1  0.99642  0.56939  0.66437  1
 O  O4  1  0.81020  0.72241  0.29432  1
 O  O5  1  0.30684  0.43436  0.03758  1
 O  O6  1  0.18980  0.22241  0.20568  1
 O  O7  1  0.76103  0.34555  0.90623  1
 O  O8  1  0.23897  0.84555  0.59377  1
 O  O9  1  0.69316  0.93436  0.46242  1
 O  O10  1  0.99642  0.93061  0.16437  1
 O  O11  1  0.69316  0.56564  0.96242  1
 O  O12  1  0.76103  0.15445  0.40623  1
 O  O13  1  0.00358  0.43061  0.33563  1
 O  O14  1  0.00358  0.06939  0.83563  1
 O  O15  1  0.30684  0.06564  0.53758  1
 O  O16  1  0.18980  0.27759  0.70568  1
 Y  Y1  1  0.63877  0.55126  0.30007  1
 Y  Y2  1  0.36123  0.44874  0.69993  1
 Y  Y3  1  0.63877  0.94874  0.80007  1
 Y  Y4  1  0.36123  0.05126  0.19993  1
