CIF file written using JARVIS-Tools package.
data_In2Si2O7
_symmetry_space_group_name_H-M  'C2/m'
_cell_length_a       4.75395
_cell_length_b       5.49631
_cell_length_c       5.49631
_cell_angle_alpha    104.733
_cell_angle_beta     97.7729
_cell_angle_gamma    97.773

_symmetry_Int_Tables_number  12
_chemical_formula_structural  In2Si2O7
_chemical_formula_sum  In2Si2O7
_cell_volume  135.44239016328706
_cell_formula_units_Z  1
loop_
  _symmetry_equiv_pos_site_id
 _symmetry_equiv_pos_as_xyz
 1  'x, y, z'
loop_
 _atom_site_type_symbol
 _atom_site_label
 _atom_site_symmetry_multiplicity
 _atom_site_fract_x
 _atom_site_fract_y
 _atom_site_fract_z
 _atom_site_fract_occupancy
 In  In1  1  0.00000  0.30725  0.69275  1
 In  In2  1  -0.00000  0.69275  0.30725  1
 O  O1  1  0.78042  0.92105  0.60844  1
 O  O2  1  0.21958  0.39156  0.07895  1
 O  O3  1  0.21958  0.07895  0.39156  1
 O  O4  1  0.78042  0.60844  0.92105  1
 O  O5  1  0.50000  0.00000  0.00000  1
 O  O6  1  0.28235  0.60960  0.60960  1
 O  O7  1  0.71765  0.39040  0.39040  1
 Si  Si1  1  0.41078  0.22034  0.22034  1
 Si  Si2  1  0.58922  0.77966  0.77966  1
