CIF file written using JARVIS-Tools package.
data_Dy3In4Co2
_symmetry_space_group_name_H-M  'P-6'
_cell_length_a       7.8073
_cell_length_b       7.8073
_cell_length_c       3.65817
_cell_angle_alpha    90
_cell_angle_beta     90
_cell_angle_gamma    120

_symmetry_Int_Tables_number  174
_chemical_formula_structural  Dy3In4Co2
_chemical_formula_sum  Dy3In4Co2
_cell_volume  193.1061817506746
_cell_formula_units_Z  1
loop_
  _symmetry_equiv_pos_site_id
 _symmetry_equiv_pos_as_xyz
 1  'x, y, z'
loop_
 _atom_site_type_symbol
 _atom_site_label
 _atom_site_symmetry_multiplicity
 _atom_site_fract_x
 _atom_site_fract_y
 _atom_site_fract_z
 _atom_site_fract_occupancy
 Co  Co1  1  0.66667  0.33333  0.50000  1
 Co  Co2  1  0.00000  0.00000  0.00000  1
 Dy  Dy1  1  0.04728  0.29202  0.50000  1
 Dy  Dy2  1  0.70798  0.75526  0.50000  1
 Dy  Dy3  1  0.24474  0.95272  0.50000  1
 In  In1  1  0.66521  0.08174  0.00000  1
 In  In2  1  0.91826  0.58346  0.00000  1
 In  In3  1  0.41654  0.33479  0.00000  1
 In  In4  1  0.33333  0.66667  0.00000  1
