CIF file written using JARVIS-Tools package.
data_Sr3TaGa3Si2O14
_symmetry_space_group_name_H-M  'P321'
_cell_length_a       8.36149
_cell_length_b       8.36149
_cell_length_c       5.11914
_cell_angle_alpha    90
_cell_angle_beta     90
_cell_angle_gamma    120

_symmetry_Int_Tables_number  150
_chemical_formula_structural  Sr3TaGa3Si2O14
_chemical_formula_sum  Sr3TaGa3Si2O4
_cell_volume  309.9526854903358
_cell_formula_units_Z  1
loop_
  _symmetry_equiv_pos_site_id
 _symmetry_equiv_pos_as_xyz
 1  'x, y, z'
loop_
 _atom_site_type_symbol
 _atom_site_label
 _atom_site_symmetry_multiplicity
 _atom_site_fract_x
 _atom_site_fract_y
 _atom_site_fract_z
 _atom_site_fract_occupancy
 Ga  Ga1  1  0.74617  0.74617  0.50000  1
 Ga  Ga2  1  0.25383  0.00000  0.50000  1
 Ga  Ga3  1  0.00000  0.25383  0.50000  1
 O  O1  1  0.33333  0.66667  0.77868  1
 O  O2  1  0.77780  0.90644  0.76925  1
 O  O3  1  0.12864  0.22220  0.76925  1
 O  O4  1  0.83361  0.30789  0.67203  1
 O  O5  1  0.22220  0.12864  0.23075  1
 O  O6  1  0.87136  0.09356  0.23075  1
 O  O7  1  0.09356  0.87136  0.76925  1
 O  O8  1  0.52572  0.69211  0.32797  1
 O  O9  1  0.16639  0.47428  0.32797  1
 O  O10  1  0.47428  0.16639  0.67203  1
 O  O11  1  0.90644  0.77780  0.23075  1
 O  O12  1  0.66667  0.33333  0.22132  1
 O  O13  1  0.69211  0.52572  0.67203  1
 O  O14  1  0.30789  0.83361  0.32797  1
 Si  Si1  1  0.66667  0.33333  0.53639  1
 Si  Si2  1  0.33333  0.66667  0.46361  1
 Sr  Sr1  1  0.57134  0.00000  0.00000  1
 Sr  Sr2  1  0.00000  0.57134  0.00000  1
 Sr  Sr3  1  0.42866  0.42866  0.00000  1
 Ta  Ta1  1  0.00000  0.00000  0.00000  1
