CIF file written using JARVIS-Tools package.
data_KH3O2
_symmetry_space_group_name_H-M  'P2_1/c'
_cell_length_a       5.84452
_cell_length_b       5.69872
_cell_length_c       7.89201
_cell_angle_alpha    90
_cell_angle_beta     109.6
_cell_angle_gamma    90

_symmetry_Int_Tables_number  14
_chemical_formula_structural  KH3O2
_chemical_formula_sum  K4H2O8
_cell_volume  247.62377491839962
_cell_formula_units_Z  4
loop_
  _symmetry_equiv_pos_site_id
 _symmetry_equiv_pos_as_xyz
 1  'x, y, z'
loop_
 _atom_site_type_symbol
 _atom_site_label
 _atom_site_symmetry_multiplicity
 _atom_site_fract_x
 _atom_site_fract_y
 _atom_site_fract_z
 _atom_site_fract_occupancy
 H  H1  1  0.01232  0.52177  0.25296  1
 H  H2  1  0.22981  0.21276  0.65540  1
 H  H3  1  0.01232  0.97823  0.75296  1
 H  H4  1  0.98768  0.47823  0.74704  1
 H  H5  1  0.22949  0.20423  0.95760  1
 H  H6  1  0.22949  0.29577  0.45760  1
 H  H7  1  0.77051  0.79577  0.04240  1
 H  H8  1  0.77051  0.70423  0.54240  1
 H  H9  1  0.22981  0.28724  0.15540  1
 H  H10  1  0.77019  0.78724  0.34460  1
 H  H11  1  0.77019  0.71276  0.84460  1
 H  H12  1  0.98768  0.02177  0.24704  1
 K  K1  1  0.30190  0.75580  0.57654  1
 K  K2  1  0.30190  0.74420  0.07654  1
 K  K3  1  0.69810  0.24420  0.42346  1
 K  K4  1  0.69810  0.25580  0.92346  1
 O  O1  1  0.65555  0.74318  0.41435  1
 O  O2  1  0.34445  0.24318  0.08565  1
 O  O3  1  0.05333  0.14639  0.76220  1
 O  O4  1  0.05333  0.35361  0.26220  1
 O  O5  1  0.94667  0.85361  0.23780  1
 O  O6  1  0.65555  0.75682  0.91435  1
 O  O7  1  0.34445  0.25682  0.58565  1
 O  O8  1  0.94667  0.64639  0.73780  1
