CIF file written using JARVIS-Tools package.
data_Ti3AlF15
_symmetry_space_group_name_H-M  'P2_1/m'
_cell_length_a       9.35449
_cell_length_b       5.92677
_cell_length_c       9.77556
_cell_angle_alpha    90
_cell_angle_beta     90
_cell_angle_gamma    103.265

_symmetry_Int_Tables_number  11
_chemical_formula_structural  Ti3AlF15
_chemical_formula_sum  Ti6Al2F30
_cell_volume  527.5154580966297
_cell_formula_units_Z  2
loop_
  _symmetry_equiv_pos_site_id
 _symmetry_equiv_pos_as_xyz
 1  'x, y, z'
loop_
 _atom_site_type_symbol
 _atom_site_label
 _atom_site_symmetry_multiplicity
 _atom_site_fract_x
 _atom_site_fract_y
 _atom_site_fract_z
 _atom_site_fract_occupancy
 Al  Al1  1  0.89406  0.44418  0.25000  1
 Al  Al2  1  0.43927  0.55582  0.75000  1
 F  F1  1  0.65017  0.12289  0.91547  1
 F  F2  1  0.68317  0.87711  0.41547  1
 F  F3  1  0.11925  0.75428  0.88715  1
 F  F4  1  0.96911  0.90662  0.41869  1
 F  F5  1  0.68317  0.87711  0.08453  1
 F  F6  1  0.29214  0.83534  0.39612  1
 F  F7  1  0.65017  0.12289  0.58453  1
 F  F8  1  0.36422  0.09338  0.58131  1
 F  F9  1  0.04120  0.16466  0.60388  1
 F  F10  1  0.83479  0.13316  0.75000  1
 F  F11  1  0.58155  0.43309  0.75000  1
 F  F12  1  0.26654  0.40171  0.75000  1
 F  F13  1  0.75179  0.56691  0.25000  1
 F  F14  1  0.49854  0.86684  0.25000  1
 F  F15  1  0.06679  0.59829  0.25000  1
 F  F16  1  0.80674  0.74882  0.88000  1
 F  F17  1  0.46299  0.72577  0.59830  1
 F  F18  1  0.96911  0.90662  0.08131  1
 F  F19  1  0.46299  0.72577  0.90170  1
 F  F20  1  0.52659  0.25118  0.12000  1
 F  F21  1  0.87034  0.27423  0.09830  1
 F  F22  1  0.29214  0.83534  0.10388  1
 F  F23  1  0.52659  0.25118  0.38000  1
 F  F24  1  0.87034  0.27423  0.40170  1
 F  F25  1  0.21408  0.24572  0.38715  1
 F  F26  1  0.36422  0.09338  0.91869  1
 F  F27  1  0.80674  0.74882  0.62000  1
 F  F28  1  0.04120  0.16466  0.89612  1
 F  F29  1  0.21408  0.24572  0.11285  1
 F  F30  1  0.11925  0.75428  0.61285  1
 Ti  Ti1  1  0.83509  0.03074  0.94454  1
 Ti  Ti2  1  0.49824  0.96926  0.05546  1
 Ti  Ti3  1  0.16667  0.00000  0.00000  1
 Ti  Ti4  1  0.83509  0.03074  0.55546  1
 Ti  Ti5  1  0.49824  0.96926  0.44454  1
 Ti  Ti6  1  0.16667  0.00000  0.50000  1
