CIF file written using JARVIS-Tools package.
data_TiNb3Al2C2
_symmetry_space_group_name_H-M  'P3m1'
_cell_length_a       3.11315
_cell_length_b       3.11315
_cell_length_c       13.8962
_cell_angle_alpha    90
_cell_angle_beta     90
_cell_angle_gamma    120

_symmetry_Int_Tables_number  156
_chemical_formula_structural  TiNb3Al2C2
_chemical_formula_sum  TiNb3Al2C2
_cell_volume  116.63407474579856
_cell_formula_units_Z  1
loop_
  _symmetry_equiv_pos_site_id
 _symmetry_equiv_pos_as_xyz
 1  'x, y, z'
loop_
 _atom_site_type_symbol
 _atom_site_label
 _atom_site_symmetry_multiplicity
 _atom_site_fract_x
 _atom_site_fract_y
 _atom_site_fract_z
 _atom_site_fract_occupancy
 Al  Al1  1  0.66667  0.33333  0.74905  1
 Al  Al2  1  0.33333  0.66667  0.25284  1
 C  C1  1  0.00000  0.00000  0.49438  1
 C  C2  1  0.00000  0.00000  0.00085  1
 Nb  Nb1  1  0.33333  0.66667  0.58766  1
 Nb  Nb2  1  0.33333  0.66667  0.91005  1
 Nb  Nb3  1  0.66667  0.33333  0.09141  1
 Ti  Ti1  1  0.66667  0.33333  0.41375  1
