CIF file written using JARVIS-Tools package.
data_Ti3Al2NiC
_symmetry_space_group_name_H-M  'Fd-3m'
_cell_length_a       8.11265
_cell_length_b       8.11266
_cell_length_c       8.11265
_cell_angle_alpha    60
_cell_angle_beta     60
_cell_angle_gamma    60

_symmetry_Int_Tables_number  227
_chemical_formula_structural  Ti3Al2NiC
_chemical_formula_sum  Ti2Al8Ni4C4
_cell_volume  377.5495568321761
_cell_formula_units_Z  4
loop_
  _symmetry_equiv_pos_site_id
 _symmetry_equiv_pos_as_xyz
 1  'x, y, z'
loop_
 _atom_site_type_symbol
 _atom_site_label
 _atom_site_symmetry_multiplicity
 _atom_site_fract_x
 _atom_site_fract_y
 _atom_site_fract_z
 _atom_site_fract_occupancy
 Al  Al1  1  0.29187  0.29187  0.29187  1
 Al  Al2  1  0.29187  0.29187  0.62438  1
 Al  Al3  1  0.62438  0.29187  0.29187  1
 Al  Al4  1  0.29187  0.62438  0.29187  1
 Al  Al5  1  0.37562  0.70813  0.70813  1
 Al  Al6  1  0.70813  0.37562  0.70813  1
 Al  Al7  1  0.70813  0.70813  0.37562  1
 Al  Al8  1  0.70813  0.70813  0.70813  1
 C  C1  1  0.00000  0.00000  0.00000  1
 C  C2  1  0.50000  0.00000  0.00000  1
 C  C3  1  0.00000  0.00000  0.50000  1
 C  C4  1  -0.00000  0.50000  0.00000  1
 Ni  Ni1  1  -0.00000  0.50000  0.50000  1
 Ni  Ni2  1  0.50000  0.50000  0.00000  1
 Ni  Ni3  1  0.50000  0.50000  0.50000  1
 Ni  Ni4  1  0.50000  0.00000  0.50000  1
 Ti  Ti1  1  0.31278  0.31278  0.93722  1
 Ti  Ti2  1  0.93722  0.31278  0.31278  1
 Ti  Ti3  1  0.93722  0.31278  0.93722  1
 Ti  Ti4  1  0.31278  0.93722  0.31278  1
 Ti  Ti5  1  0.06278  0.68722  0.06278  1
 Ti  Ti6  1  0.06278  0.06278  0.68722  1
 Ti  Ti7  1  0.68722  0.68722  0.06278  1
 Ti  Ti8  1  0.68722  0.06278  0.68722  1
 Ti  Ti9  1  0.31278  0.93722  0.93722  1
 Ti  Ti10  1  0.06278  0.68722  0.68722  1
 Ti  Ti11  1  0.68722  0.06278  0.06278  1
 Ti  Ti12  1  0.93722  0.93722  0.31278  1
