CIF file written using JARVIS-Tools package.
data_Ho2CuPd
_symmetry_space_group_name_H-M  'Fm-3m'
_cell_length_a       4.89167
_cell_length_b       4.89167
_cell_length_c       4.89167
_cell_angle_alpha    59.979
_cell_angle_beta     59.979
_cell_angle_gamma    59.979

_symmetry_Int_Tables_number  225
_chemical_formula_structural  Ho2CuPd
_chemical_formula_sum  Ho2CuPd
_cell_volume  82.72714465554971
_cell_formula_units_Z  1
loop_
  _symmetry_equiv_pos_site_id
 _symmetry_equiv_pos_as_xyz
 1  'x, y, z'
loop_
 _atom_site_type_symbol
 _atom_site_label
 _atom_site_symmetry_multiplicity
 _atom_site_fract_x
 _atom_site_fract_y
 _atom_site_fract_z
 _atom_site_fract_occupancy
 Cu  Cu1  1  0.25000  0.25000  0.25000  1
 Ho  Ho1  1  0.00001  0.00001  0.00001  1
 Ho  Ho2  1  0.49999  0.49999  0.49999  1
 Pd  Pd1  1  0.75001  0.75001  0.75001  1
