CIF file written using JARVIS-Tools package.
data_LiFe3O4
_symmetry_space_group_name_H-M  'Cmmm'
_cell_length_a       5.09326
_cell_length_b       5.09327
_cell_length_c       2.99789
_cell_angle_alpha    90
_cell_angle_beta     90
_cell_angle_gamma    107.776

_symmetry_Int_Tables_number  65
_chemical_formula_structural  LiFe3O4
_chemical_formula_sum  LiFe3O4
_cell_volume  74.05664399243751
_cell_formula_units_Z  1
loop_
  _symmetry_equiv_pos_site_id
 _symmetry_equiv_pos_as_xyz
 1  'x, y, z'
loop_
 _atom_site_type_symbol
 _atom_site_label
 _atom_site_symmetry_multiplicity
 _atom_site_fract_x
 _atom_site_fract_y
 _atom_site_fract_z
 _atom_site_fract_occupancy
 Fe  Fe1  1  -0.00000  0.50000  0.50000  1
 Fe  Fe2  1  0.00000  0.00000  0.00000  1
 Fe  Fe3  1  0.50000  -0.00000  0.50000  1
 Li  Li1  1  0.50000  0.50000  0.00000  1
 O  O1  1  0.24577  0.24577  0.50000  1
 O  O2  1  0.25545  0.74455  0.00000  1
 O  O3  1  0.74455  0.25545  0.00000  1
 O  O4  1  0.75423  0.75423  0.50000  1
