CIF file written using JARVIS-Tools package.
data_YbCdIn
_symmetry_space_group_name_H-M  'P-3m1'
_cell_length_a       4.90942
_cell_length_b       4.90942
_cell_length_c       7.49162
_cell_angle_alpha    90
_cell_angle_beta     90
_cell_angle_gamma    120

_symmetry_Int_Tables_number  164
_chemical_formula_structural  YbCdIn
_chemical_formula_sum  Yb2Cd2In2
_cell_volume  156.3746522515004
_cell_formula_units_Z  2
loop_
  _symmetry_equiv_pos_site_id
 _symmetry_equiv_pos_as_xyz
 1  'x, y, z'
loop_
 _atom_site_type_symbol
 _atom_site_label
 _atom_site_symmetry_multiplicity
 _atom_site_fract_x
 _atom_site_fract_y
 _atom_site_fract_z
 _atom_site_fract_occupancy
 Cd  Cd1  1  0.33333  0.66667  0.47662  1
 Cd  Cd2  1  0.66667  0.33333  0.52338  1
 In  In1  1  0.66667  0.33333  0.95307  1
 In  In2  1  0.33333  0.66667  0.04693  1
 Yb  Yb1  1  0.00000  0.00000  0.25977  1
 Yb  Yb2  1  0.00000  0.00000  0.74023  1
