CIF file written using JARVIS-Tools package.
data_K3Mn2O8
_symmetry_space_group_name_H-M  'R-3m'
_cell_length_a       7.83054
_cell_length_b       5.73599
_cell_length_c       9.7075
_cell_angle_alpha    90
_cell_angle_beta     111.949
_cell_angle_gamma    90

_symmetry_Int_Tables_number  166
_chemical_formula_structural  K3Mn2O8
_chemical_formula_sum  K6Mn4O6
_cell_volume  404.41674223786896
_cell_formula_units_Z  2
loop_
  _symmetry_equiv_pos_site_id
 _symmetry_equiv_pos_as_xyz
 1  'x, y, z'
loop_
 _atom_site_type_symbol
 _atom_site_label
 _atom_site_symmetry_multiplicity
 _atom_site_fract_x
 _atom_site_fract_y
 _atom_site_fract_z
 _atom_site_fract_occupancy
 K  K1  1  0.34306  0.25000  0.95348  1
 K  K2  1  0.65694  0.75000  0.04652  1
 K  K3  1  0.15693  0.25000  0.54652  1
 K  K4  1  0.24992  0.75000  0.24992  1
 K  K5  1  0.84307  0.75000  0.45348  1
 K  K6  1  0.75008  0.25000  0.75008  1
 Mn  Mn1  1  0.93517  0.25000  0.15742  1
 Mn  Mn2  1  0.06483  0.75000  0.84258  1
 Mn  Mn3  1  0.56477  0.25000  0.34261  1
 Mn  Mn4  1  0.43523  0.75000  0.65739  1
 O  O1  1  0.22738  0.75000  0.52839  1
 O  O2  1  0.27270  0.75000  0.97155  1
 O  O3  1  0.96023  0.01707  0.26135  1
 O  O4  1  0.08862  0.25000  0.08067  1
 O  O5  1  0.58872  0.75000  0.58069  1
 O  O6  1  0.77262  0.25000  0.47161  1
 O  O7  1  0.41128  0.25000  0.41931  1
 O  O8  1  0.72730  0.25000  0.02845  1
 O  O9  1  0.53973  0.01707  0.23868  1
 O  O10  1  0.03977  0.51707  0.73865  1
 O  O11  1  0.03977  0.98293  0.73865  1
 O  O12  1  0.53973  0.48293  0.23868  1
 O  O13  1  0.96023  0.48293  0.26135  1
 O  O14  1  0.46027  0.51707  0.76132  1
 O  O15  1  0.46027  0.98293  0.76132  1
 O  O16  1  0.91138  0.75000  0.91933  1
