CIF file written using JARVIS-Tools package.
data_Ba3P2O8
_symmetry_space_group_name_H-M  'R-3m'
_cell_length_a       7.76522
_cell_length_b       7.76522
_cell_length_c       7.76522
_cell_angle_alpha    42.6561
_cell_angle_beta     42.6562
_cell_angle_gamma    42.6562

_symmetry_Int_Tables_number  166
_chemical_formula_structural  Ba3P2O8
_chemical_formula_sum  Ba3P2O8
_cell_volume  194.72480344674617
_cell_formula_units_Z  1
loop_
  _symmetry_equiv_pos_site_id
 _symmetry_equiv_pos_as_xyz
 1  'x, y, z'
loop_
 _atom_site_type_symbol
 _atom_site_label
 _atom_site_symmetry_multiplicity
 _atom_site_fract_x
 _atom_site_fract_y
 _atom_site_fract_z
 _atom_site_fract_occupancy
 Ba  Ba1  1  0.20833  0.20833  0.20833  1
 Ba  Ba2  1  0.79167  0.79167  0.79167  1
 Ba  Ba3  1  0.00000  0.00000  0.00000  1
 O  O1  1  0.28276  0.28276  0.73327  1
 O  O2  1  0.28276  0.73327  0.28276  1
 O  O3  1  0.73327  0.28276  0.28276  1
 O  O4  1  0.26673  0.71724  0.71724  1
 O  O5  1  0.71724  0.71724  0.26673  1
 O  O6  1  0.66544  0.66544  0.66544  1
 O  O7  1  0.33456  0.33456  0.33456  1
 O  O8  1  0.71724  0.26673  0.71724  1
 P  P1  1  0.40772  0.40772  0.40772  1
 P  P2  1  0.59228  0.59228  0.59228  1
