CIF file written using JARVIS-Tools package.
data_AuSeClO3
_symmetry_space_group_name_H-M  'P-1'
_cell_length_a       4.19158
_cell_length_b       9.82738
_cell_length_c       10.6756
_cell_angle_alpha    79.9061
_cell_angle_beta     87.8928
_cell_angle_gamma    87.3772

_symmetry_Int_Tables_number  2
_chemical_formula_structural  AuSeClO3
_chemical_formula_sum  Au4Se4Cl4O2
_cell_volume  432.30746934226397
_cell_formula_units_Z  4
loop_
  _symmetry_equiv_pos_site_id
 _symmetry_equiv_pos_as_xyz
 1  'x, y, z'
loop_
 _atom_site_type_symbol
 _atom_site_label
 _atom_site_symmetry_multiplicity
 _atom_site_fract_x
 _atom_site_fract_y
 _atom_site_fract_z
 _atom_site_fract_occupancy
 Au  Au1  1  0.00698  0.57725  0.18950  1
 Au  Au2  1  0.00000  0.00000  0.00000  1
 Au  Au3  1  0.99302  0.42275  0.81050  1
 Au  Au4  1  0.00000  -0.00000  0.50000  1
 Cl  Cl1  1  0.34657  0.50142  0.64912  1
 Cl  Cl2  1  0.72306  0.80069  0.56666  1
 Cl  Cl3  1  0.27694  0.19931  0.43334  1
 Cl  Cl4  1  0.65343  0.49858  0.35088  1
 O  O1  1  0.92992  0.60415  0.87070  1
 O  O2  1  0.37459  0.04968  0.87824  1
 O  O3  1  0.62541  0.95032  0.12176  1
 O  O4  1  0.65348  0.35461  0.94812  1
 O  O5  1  0.03590  0.75935  0.24902  1
 O  O6  1  0.08734  0.16987  0.07080  1
 O  O7  1  0.07008  0.39585  0.12930  1
 O  O8  1  0.91266  0.83013  0.92920  1
 O  O9  1  0.34652  0.64539  0.05188  1
 O  O10  1  0.96410  0.24065  0.75098  1
 O  O11  1  0.91852  0.99374  0.31724  1
 O  O12  1  0.08148  0.00626  0.68276  1
 Se  Se1  1  0.77309  0.28560  0.10121  1
 Se  Se2  1  0.22691  0.71440  0.89879  1
 Se  Se3  1  0.69452  0.86224  0.27548  1
 Se  Se4  1  0.30548  0.13776  0.72452  1
