CIF file written using JARVIS-Tools package.
data_Ca3SnS5
_symmetry_space_group_name_H-M  'I4/mcm'
_cell_length_a       7.61899
_cell_length_b       7.61899
_cell_length_c       8.9378
_cell_angle_alpha    115.228
_cell_angle_beta     115.228
_cell_angle_gamma    90

_symmetry_Int_Tables_number  140
_chemical_formula_structural  Ca3SnS5
_chemical_formula_sum  Ca6Sn2S0
_cell_volume  413.9827385486208
_cell_formula_units_Z  2
loop_
  _symmetry_equiv_pos_site_id
 _symmetry_equiv_pos_as_xyz
 1  'x, y, z'
loop_
 _atom_site_type_symbol
 _atom_site_label
 _atom_site_symmetry_multiplicity
 _atom_site_fract_x
 _atom_site_fract_y
 _atom_site_fract_z
 _atom_site_fract_occupancy
 Ca  Ca1  1  0.75000  0.75000  0.50000  1
 Ca  Ca2  1  0.25000  0.25000  0.50000  1
 Ca  Ca3  1  0.33797  0.16203  0.00000  1
 Ca  Ca4  1  0.66203  0.83797  0.00000  1
 Ca  Ca5  1  0.16203  0.66203  0.00000  1
 Ca  Ca6  1  0.83797  0.33797  0.00000  1
 S  S1  1  0.52408  0.02408  0.71418  1
 S  S2  1  0.00000  0.00000  0.00000  1
 S  S3  1  0.30990  0.47592  0.28582  1
 S  S4  1  0.50000  0.50000  0.00000  1
 S  S5  1  0.47592  0.97592  0.28582  1
 S  S6  1  0.02408  0.19010  0.71418  1
 S  S7  1  0.69010  0.52408  0.71418  1
 S  S8  1  0.97592  0.80990  0.28582  1
 S  S9  1  0.80990  0.30990  0.28582  1
 S  S10  1  0.19010  0.69010  0.71418  1
 Sn  Sn1  1  0.75000  0.25000  0.50000  1
 Sn  Sn2  1  0.25000  0.75000  0.50000  1
