CIF file written using JARVIS-Tools package.
data_Mn2SnO4
_symmetry_space_group_name_H-M  'Imma'
_cell_length_a       6.31119
_cell_length_b       6.18824
_cell_length_c       6.31119
_cell_angle_alpha    60.6424
_cell_angle_beta     60.4101
_cell_angle_gamma    60.6424

_symmetry_Int_Tables_number  74
_chemical_formula_structural  Mn2SnO4
_chemical_formula_sum  Mn4Sn2O8
_cell_volume  176.5131905892987
_cell_formula_units_Z  2
loop_
  _symmetry_equiv_pos_site_id
 _symmetry_equiv_pos_as_xyz
 1  'x, y, z'
loop_
 _atom_site_type_symbol
 _atom_site_label
 _atom_site_symmetry_multiplicity
 _atom_site_fract_x
 _atom_site_fract_y
 _atom_site_fract_z
 _atom_site_fract_occupancy
 Mn  Mn1  1  0.01656  0.98344  0.01656  1
 Mn  Mn2  1  0.23344  0.26656  0.23344  1
 Mn  Mn3  1  0.62500  0.12500  0.62500  1
 Mn  Mn4  1  0.62500  0.62500  0.62500  1
 O  O1  1  0.37701  0.39260  0.37701  1
 O  O2  1  0.37701  0.85338  0.37701  1
 O  O3  1  0.37359  0.39289  0.84063  1
 O  O4  1  0.84063  0.39289  0.37359  1
 O  O5  1  0.40937  0.85711  0.87641  1
 O  O6  1  0.87641  0.85711  0.40937  1
 O  O7  1  0.87299  0.39662  0.87299  1
 O  O8  1  0.87299  0.85740  0.87299  1
 Sn  Sn1  1  0.12500  0.62500  0.62500  1
 Sn  Sn2  1  0.62500  0.62500  0.12500  1
