CIF file written using JARVIS-Tools package.
data_K3H5Pt
_symmetry_space_group_name_H-M  'P4/mbm'
_cell_length_a       7.32673
_cell_length_b       7.32673
_cell_length_c       5.71737
_cell_angle_alpha    90
_cell_angle_beta     90
_cell_angle_gamma    90

_symmetry_Int_Tables_number  127
_chemical_formula_structural  K3H5Pt
_chemical_formula_sum  K6H0Pt2
_cell_volume  306.91437560558774
_cell_formula_units_Z  2
loop_
  _symmetry_equiv_pos_site_id
 _symmetry_equiv_pos_as_xyz
 1  'x, y, z'
loop_
 _atom_site_type_symbol
 _atom_site_label
 _atom_site_symmetry_multiplicity
 _atom_site_fract_x
 _atom_site_fract_y
 _atom_site_fract_z
 _atom_site_fract_occupancy
 H  H1  1  0.61498  0.11498  0.20307  1
 H  H2  1  0.11498  0.38502  0.79693  1
 H  H3  1  0.50000  0.50000  0.50000  1
 H  H4  1  0.00000  0.00000  0.50000  1
 H  H5  1  0.38502  0.88502  0.79693  1
 H  H6  1  0.61498  0.11498  0.79693  1
 H  H7  1  0.11498  0.38502  0.20307  1
 H  H8  1  0.88502  0.61498  0.20307  1
 H  H9  1  0.88502  0.61498  0.79693  1
 H  H10  1  0.38502  0.88502  0.20307  1
 K  K1  1  0.50000  0.50000  0.00000  1
 K  K2  1  0.31613  0.18387  0.50000  1
 K  K3  1  0.68387  0.81613  0.50000  1
 K  K4  1  0.81613  0.31613  0.50000  1
 K  K5  1  0.18387  0.68387  0.50000  1
 K  K6  1  0.00000  0.00000  0.00000  1
 Pt  Pt1  1  0.50000  0.00000  0.00000  1
 Pt  Pt2  1  0.00000  0.50000  0.00000  1
