CIF file written using JARVIS-Tools package.
data_SmYS2
_symmetry_space_group_name_H-M  'R-3m'
_cell_length_a       6.87934
_cell_length_b       6.87934
_cell_length_c       6.87934
_cell_angle_alpha    33.3257
_cell_angle_beta     33.3258
_cell_angle_gamma    33.3258

_symmetry_Int_Tables_number  166
_chemical_formula_structural  SmYS2
_chemical_formula_sum  SmYS2
_cell_volume  87.49701199466443
_cell_formula_units_Z  1
loop_
  _symmetry_equiv_pos_site_id
 _symmetry_equiv_pos_as_xyz
 1  'x, y, z'
loop_
 _atom_site_type_symbol
 _atom_site_label
 _atom_site_symmetry_multiplicity
 _atom_site_fract_x
 _atom_site_fract_y
 _atom_site_fract_z
 _atom_site_fract_occupancy
 S  S1  1  0.24673  0.24673  0.24673  1
 S  S2  1  0.75327  0.75327  0.75327  1
 Sm  Sm1  1  0.00000  0.00000  0.00000  1
 Y  Y1  1  0.50000  0.50000  0.50000  1
