CIF file written using JARVIS-Tools package.
data_RbLiMnS2
_symmetry_space_group_name_H-M  'I-4m2'
_cell_length_a       7.03105
_cell_length_b       7.03105
_cell_length_c       7.03104
_cell_angle_alpha    147.732
_cell_angle_beta     147.732
_cell_angle_gamma    46.2805

_symmetry_Int_Tables_number  119
_chemical_formula_structural  RbLiMnS2
_chemical_formula_sum  RbLiMnS2
_cell_volume  98.72122046722131
_cell_formula_units_Z  1
loop_
  _symmetry_equiv_pos_site_id
 _symmetry_equiv_pos_as_xyz
 1  'x, y, z'
loop_
 _atom_site_type_symbol
 _atom_site_label
 _atom_site_symmetry_multiplicity
 _atom_site_fract_x
 _atom_site_fract_y
 _atom_site_fract_z
 _atom_site_fract_occupancy
 Li  Li1  1  0.25000  0.75000  0.50000  1
 Mn  Mn1  1  0.75000  0.25000  0.50000  1
 Rb  Rb1  1  0.00000  0.00000  0.00000  1
 S  S1  1  0.66064  0.66064  0.00000  1
 S  S2  1  0.33936  0.33936  -0.00000  1
