CIF file written using JARVIS-Tools package.
data_Li2TiFe3O8
_symmetry_space_group_name_H-M  'P6_3mc'
_cell_length_a       5.65689
_cell_length_b       5.6573
_cell_length_c       9.35061
_cell_angle_alpha    89.9978
_cell_angle_beta     90.0012
_cell_angle_gamma    120.002

_symmetry_Int_Tables_number  186
_chemical_formula_structural  Li2TiFe3O8
_chemical_formula_sum  Li4Ti2Fe6O6
_cell_volume  259.1476026361153
_cell_formula_units_Z  2
loop_
  _symmetry_equiv_pos_site_id
 _symmetry_equiv_pos_as_xyz
 1  'x, y, z'
loop_
 _atom_site_type_symbol
 _atom_site_label
 _atom_site_symmetry_multiplicity
 _atom_site_fract_x
 _atom_site_fract_y
 _atom_site_fract_z
 _atom_site_fract_occupancy
 Fe  Fe1  1  0.34686  0.17344  0.71533  1
 Fe  Fe2  1  0.65314  0.82658  0.21533  1
 Fe  Fe3  1  0.17356  0.82659  0.21532  1
 Fe  Fe4  1  0.17356  0.34699  0.21532  1
 Fe  Fe5  1  0.82644  0.65303  0.71532  1
 Fe  Fe6  1  0.82644  0.17344  0.71532  1
 Li  Li1  1  0.33332  0.66668  0.89410  1
 Li  Li2  1  0.66668  0.33335  0.39410  1
 Li  Li3  1  -0.00013  0.99993  0.49590  1
 Li  Li4  1  0.00013  0.00007  0.99590  1
 O  O1  1  0.16466  0.83523  0.60034  1
 O  O2  1  0.03486  0.51744  0.33750  1
 O  O3  1  0.33341  0.66673  0.10212  1
 O  O4  1  0.00009  0.00005  0.30627  1
 O  O5  1  0.99991  -0.00004  0.80627  1
 O  O6  1  0.16465  0.32943  0.60033  1
 O  O7  1  0.96514  0.48258  0.83750  1
 O  O8  1  0.48265  0.51748  0.33752  1
 O  O9  1  0.83534  0.67057  0.10034  1
 O  O10  1  0.51734  0.48254  0.83752  1
 O  O11  1  0.51735  0.03483  0.83752  1
 O  O12  1  0.66659  0.33331  0.60212  1
 O  O13  1  0.48266  0.96520  0.33752  1
 O  O14  1  0.32958  0.16481  0.10036  1
 O  O15  1  0.67042  0.83523  0.60036  1
 O  O16  1  0.83535  0.16479  0.10033  1
 Ti  Ti1  1  0.66676  0.33340  0.99598  1
 Ti  Ti2  1  0.33324  0.66663  0.49598  1
