CIF file written using JARVIS-Tools package.
data_LiVF4
_symmetry_space_group_name_H-M  'C2/m'
_cell_length_a       4.91277
_cell_length_b       4.91277
_cell_length_c       6.23208
_cell_angle_alpha    56.3663
_cell_angle_beta     56.3664
_cell_angle_gamma    35.3906

_symmetry_Int_Tables_number  12
_chemical_formula_structural  LiVF4
_chemical_formula_sum  LiVF4
_cell_volume  70.87595730946329
_cell_formula_units_Z  1
loop_
  _symmetry_equiv_pos_site_id
 _symmetry_equiv_pos_as_xyz
 1  'x, y, z'
loop_
 _atom_site_type_symbol
 _atom_site_label
 _atom_site_symmetry_multiplicity
 _atom_site_fract_x
 _atom_site_fract_y
 _atom_site_fract_z
 _atom_site_fract_occupancy
 F  F1  1  0.66735  0.66735  -0.11032  1
 F  F2  1  0.95791  0.95791  0.33832  1
 F  F3  1  0.33265  0.33265  0.11032  1
 F  F4  1  0.04209  0.04209  0.66168  1
 Li  Li1  1  0.50000  0.50000  0.50000  1
 V  V1  1  0.00000  0.00000  0.00000  1
