data_image0
_chemical_formula_structural       O5Ti4
_chemical_formula_sum              "O5 Ti4"
_cell_length_a       4.15262
_cell_length_b       5.10367
_cell_length_c       5.10367
_cell_angle_alpha    99.5268
_cell_angle_beta     114.006
_cell_angle_gamma    65.9943

_space_group_name_H-M_alt    "P 1"
_space_group_IT_number       1

loop_
  _space_group_symop_operation_xyz
  'x, y, z'

loop_
  _atom_site_type_symbol
  _atom_site_label
  _atom_site_symmetry_multiplicity
  _atom_site_fract_x
  _atom_site_fract_y
  _atom_site_fract_z
  _atom_site_occupancy
  O   O1        1.0  0.50000  0.00000  0.00000  1.0000
  O   O2        1.0  0.90900  0.39900  0.21600  1.0000
  O   O3        1.0  0.30700  0.78400  0.39900  1.0000
  O   O4        1.0  0.69300  0.21600  0.60100  1.0000
  O   O5        1.0  0.09130  0.60100  0.78400  1.0000
  Ti  Ti1       1.0  0.39200  0.39200  0.17700  1.0000
  Ti  Ti2       1.0  0.78500  0.82300  0.39200  1.0000
  Ti  Ti3       1.0  0.21500  0.17700  0.60800  1.0000
  Ti  Ti4       1.0  0.60800  0.60800  0.82300  1.0000
