CIF file written using JARVIS-Tools package.
data_ErCo3
_symmetry_space_group_name_H-M  'R-3m'
_cell_length_a       8.46772
_cell_length_b       8.46772
_cell_length_c       8.46772
_cell_angle_alpha    33.4677
_cell_angle_beta     33.4677
_cell_angle_gamma    33.4677

_symmetry_Int_Tables_number  166
_chemical_formula_structural  ErCo3
_chemical_formula_sum  Er3Co9
_cell_volume  164.4434500264321
_cell_formula_units_Z  3
loop_
  _symmetry_equiv_pos_site_id
 _symmetry_equiv_pos_as_xyz
 1  'x, y, z'
loop_
 _atom_site_type_symbol
 _atom_site_label
 _atom_site_symmetry_multiplicity
 _atom_site_fract_x
 _atom_site_fract_y
 _atom_site_fract_z
 _atom_site_fract_occupancy
 Co  Co1  1  0.91691  0.42110  0.42110  1
 Co  Co2  1  0.33246  0.33246  0.33246  1
 Co  Co3  1  0.66754  0.66754  0.66754  1
 Co  Co4  1  0.57890  0.57890  0.08309  1
 Co  Co5  1  0.08309  0.57890  0.57890  1
 Co  Co6  1  0.42110  0.42110  0.91691  1
 Co  Co7  1  0.57890  0.08309  0.57890  1
 Co  Co8  1  0.42110  0.91691  0.42110  1
 Co  Co9  1  0.50000  0.50000  0.50000  1
 Er  Er1  1  0.86074  0.86074  0.86074  1
 Er  Er2  1  0.13926  0.13926  0.13926  1
 Er  Er3  1  0.00000  0.00000  0.00000  1
