CIF file written using JARVIS-Tools package.
data_Rb4Bi
_symmetry_space_group_name_H-M  'Fd-3m'
_cell_length_a       10.3782
_cell_length_b       10.3782
_cell_length_c       10.3782
_cell_angle_alpha    60
_cell_angle_beta     60
_cell_angle_gamma    60

_symmetry_Int_Tables_number  227
_chemical_formula_structural  Rb4Bi
_chemical_formula_sum  Rb8Bi2
_cell_volume  790.4069537105149
_cell_formula_units_Z  2
loop_
  _symmetry_equiv_pos_site_id
 _symmetry_equiv_pos_as_xyz
 1  'x, y, z'
loop_
 _atom_site_type_symbol
 _atom_site_label
 _atom_site_symmetry_multiplicity
 _atom_site_fract_x
 _atom_site_fract_y
 _atom_site_fract_z
 _atom_site_fract_occupancy
 Bi  Bi1  1  0.00000  0.00000  0.00000  1
 Bi  Bi2  1  0.25000  0.25000  0.25000  1
 Rb  Rb1  1  0.38492  0.38492  0.38492  1
 Rb  Rb2  1  0.38492  0.38492  0.84523  1
 Rb  Rb3  1  0.38492  0.84523  0.38492  1
 Rb  Rb4  1  0.86508  0.86508  0.40477  1
 Rb  Rb5  1  0.86508  0.86508  0.86508  1
 Rb  Rb6  1  0.84523  0.38492  0.38492  1
 Rb  Rb7  1  0.86508  0.40477  0.86508  1
 Rb  Rb8  1  0.40477  0.86508  0.86508  1
