CIF file written using JARVIS-Tools package.
data_TmUTe6
_symmetry_space_group_name_H-M  'Amm2'
_cell_length_a       12.7603
_cell_length_b       12.7603
_cell_length_c       4.37253
_cell_angle_alpha    90
_cell_angle_beta     90
_cell_angle_gamma    160.131

_symmetry_Int_Tables_number  38
_chemical_formula_structural  TmUTe6
_chemical_formula_sum  TmUTe6
_cell_volume  241.970871791684
_cell_formula_units_Z  1
loop_
  _symmetry_equiv_pos_site_id
 _symmetry_equiv_pos_as_xyz
 1  'x, y, z'
loop_
 _atom_site_type_symbol
 _atom_site_label
 _atom_site_symmetry_multiplicity
 _atom_site_fract_x
 _atom_site_fract_y
 _atom_site_fract_z
 _atom_site_fract_occupancy
 Te  Te1  1  0.42540  0.57460  0.00000  1
 Te  Te2  1  0.57339  0.42661  0.50000  1
 Te  Te3  1  0.70634  0.29366  0.00000  1
 Te  Te4  1  0.29505  0.70495  0.50000  1
 Te  Te5  1  0.07290  0.92710  0.00000  1
 Te  Te6  1  0.92533  0.07467  0.50000  1
 Tm  Tm1  1  0.16819  0.83181  0.50000  1
 U  U1  1  0.83339  0.16661  0.00000  1
