CIF file written using JARVIS-Tools package.
data_GePb3O5
_symmetry_space_group_name_H-M  'P2'
_cell_length_a       5.2936
_cell_length_b       5.41169
_cell_length_c       5.44082
_cell_angle_alpha    90
_cell_angle_beta     90.8803
_cell_angle_gamma    90

_symmetry_Int_Tables_number  3
_chemical_formula_structural  GePb3O5
_chemical_formula_sum  GePb3O5
_cell_volume  155.84644112989776
_cell_formula_units_Z  1
loop_
  _symmetry_equiv_pos_site_id
 _symmetry_equiv_pos_as_xyz
 1  'x, y, z'
loop_
 _atom_site_type_symbol
 _atom_site_label
 _atom_site_symmetry_multiplicity
 _atom_site_fract_x
 _atom_site_fract_y
 _atom_site_fract_z
 _atom_site_fract_occupancy
 Ge  Ge1  1  0.50000  0.48216  0.00000  1
 O  O1  1  0.63728  0.29133  0.77043  1
 O  O2  1  0.73571  0.67032  0.14253  1
 O  O3  1  0.26429  0.67032  0.85747  1
 O  O4  1  0.36272  0.29133  0.22957  1
 O  O5  1  -0.00000  0.02843  0.50000  1
 Pb  Pb1  1  -0.00000  0.45618  0.50000  1
 Pb  Pb2  1  0.00000  0.99065  0.00000  1
 Pb  Pb3  1  0.50000  0.96928  0.50000  1
