CIF file written using JARVIS-Tools package.
data_Er3Pd2
_symmetry_space_group_name_H-M  'P4/mbm'
_cell_length_a       7.68631
_cell_length_b       7.68631
_cell_length_c       3.88578
_cell_angle_alpha    90
_cell_angle_beta     90
_cell_angle_gamma    90

_symmetry_Int_Tables_number  127
_chemical_formula_structural  Er3Pd2
_chemical_formula_sum  Er6Pd4
_cell_volume  229.56927457716264
_cell_formula_units_Z  2
loop_
  _symmetry_equiv_pos_site_id
 _symmetry_equiv_pos_as_xyz
 1  'x, y, z'
loop_
 _atom_site_type_symbol
 _atom_site_label
 _atom_site_symmetry_multiplicity
 _atom_site_fract_x
 _atom_site_fract_y
 _atom_site_fract_z
 _atom_site_fract_occupancy
 Er  Er1  1  0.83555  0.66445  0.50000  1
 Er  Er2  1  0.33555  0.83555  0.50000  1
 Er  Er3  1  0.16445  0.33555  0.50000  1
 Er  Er4  1  0.66445  0.16445  0.50000  1
 Er  Er5  1  0.50000  0.50000  0.00000  1
 Er  Er6  1  0.00000  0.00000  0.00000  1
 Pd  Pd1  1  0.13421  0.63421  0.00000  1
 Pd  Pd2  1  0.63421  0.86579  0.00000  1
 Pd  Pd3  1  0.36579  0.13421  0.00000  1
 Pd  Pd4  1  0.86579  0.36579  0.00000  1
