CIF file written using JARVIS-Tools package.
data_LiFe2P2O8
_symmetry_space_group_name_H-M  'C2'
_cell_length_a       5.10923
_cell_length_b       5.10924
_cell_length_c       6.72666
_cell_angle_alpha    90.471
_cell_angle_beta     89.529
_cell_angle_gamma    82.5426

_symmetry_Int_Tables_number  5
_chemical_formula_structural  LiFe2P2O8
_chemical_formula_sum  LiFe2P2O8
_cell_volume  174.0957444515098
_cell_formula_units_Z  1
loop_
  _symmetry_equiv_pos_site_id
 _symmetry_equiv_pos_as_xyz
 1  'x, y, z'
loop_
 _atom_site_type_symbol
 _atom_site_label
 _atom_site_symmetry_multiplicity
 _atom_site_fract_x
 _atom_site_fract_y
 _atom_site_fract_z
 _atom_site_fract_occupancy
 Fe  Fe1  1  0.99119  0.99119  0.00000  1
 Fe  Fe2  1  0.51036  0.51036  0.50000  1
 Li  Li1  1  0.50162  0.50162  0.00000  1
 O  O1  1  0.56113  0.70667  0.25461  1
 O  O2  1  0.13650  0.57470  0.55500  1
 O  O3  1  0.62661  0.12138  0.06788  1
 O  O4  1  0.18580  0.08559  0.22390  1
 O  O5  1  0.08559  0.18580  0.77610  1
 O  O6  1  0.12138  0.62661  0.93212  1
 O  O7  1  0.57470  0.13650  0.44500  1
 O  O8  1  0.70667  0.56113  0.74539  1
 P  P1  1  0.48506  0.01340  0.25222  1
 P  P2  1  0.01340  0.48506  0.74778  1
