CIF file written using JARVIS-Tools package.
data_Ti3Al2NiO
_symmetry_space_group_name_H-M  'Fd-3m'
_cell_length_a       8.05536
_cell_length_b       8.05536
_cell_length_c       8.05536
_cell_angle_alpha    60
_cell_angle_beta     60
_cell_angle_gamma    60

_symmetry_Int_Tables_number  227
_chemical_formula_structural  Ti3Al2NiO
_chemical_formula_sum  Ti2Al8Ni4O4
_cell_volume  369.6070788265598
_cell_formula_units_Z  4
loop_
  _symmetry_equiv_pos_site_id
 _symmetry_equiv_pos_as_xyz
 1  'x, y, z'
loop_
 _atom_site_type_symbol
 _atom_site_label
 _atom_site_symmetry_multiplicity
 _atom_site_fract_x
 _atom_site_fract_y
 _atom_site_fract_z
 _atom_site_fract_occupancy
 Al  Al1  1  0.20822  0.20822  0.87533  1
 Al  Al2  1  0.79178  0.12467  0.79178  1
 Al  Al3  1  0.20822  0.20822  0.20822  1
 Al  Al4  1  0.12467  0.79178  0.79178  1
 Al  Al5  1  0.79178  0.79178  0.12467  1
 Al  Al6  1  0.87533  0.20822  0.20822  1
 Al  Al7  1  0.79178  0.79178  0.79178  1
 Al  Al8  1  0.20822  0.87533  0.20822  1
 Ni  Ni1  1  -0.00000  0.50000  0.00000  1
 Ni  Ni2  1  0.00000  0.00000  0.50000  1
 Ni  Ni3  1  0.00000  0.00000  0.00000  1
 Ni  Ni4  1  0.50000  0.00000  0.00000  1
 O  O1  1  0.50000  0.50000  0.00000  1
 O  O2  1  0.50000  0.50000  0.50000  1
 O  O3  1  0.50000  0.00000  0.50000  1
 O  O4  1  -0.00000  0.50000  0.50000  1
 Ti  Ti1  1  0.44070  0.80930  0.80930  1
 Ti  Ti2  1  0.19070  0.55930  0.55930  1
 Ti  Ti3  1  0.80930  0.44070  0.80930  1
 Ti  Ti4  1  0.80930  0.80930  0.44070  1
 Ti  Ti5  1  0.44070  0.44070  0.80930  1
 Ti  Ti6  1  0.44070  0.80930  0.44070  1
 Ti  Ti7  1  0.19070  0.55930  0.19070  1
 Ti  Ti8  1  0.55930  0.19070  0.55930  1
 Ti  Ti9  1  0.55930  0.19070  0.19070  1
 Ti  Ti10  1  0.19070  0.19070  0.55930  1
 Ti  Ti11  1  0.55930  0.55930  0.19070  1
 Ti  Ti12  1  0.80930  0.44070  0.44070  1
