CIF file written using JARVIS-Tools package.
data_Tm2SiO5
_symmetry_space_group_name_H-M  'P2_1/c'
_cell_length_a       6.63308
_cell_length_b       6.71608
_cell_length_c       9.07184
_cell_angle_alpha    90
_cell_angle_beta     102.485
_cell_angle_gamma    90

_symmetry_Int_Tables_number  14
_chemical_formula_structural  Tm2SiO5
_chemical_formula_sum  Tm8Si4O20
_cell_volume  394.57897409447776
_cell_formula_units_Z  4
loop_
  _symmetry_equiv_pos_site_id
 _symmetry_equiv_pos_as_xyz
 1  'x, y, z'
loop_
 _atom_site_type_symbol
 _atom_site_label
 _atom_site_symmetry_multiplicity
 _atom_site_fract_x
 _atom_site_fract_y
 _atom_site_fract_z
 _atom_site_fract_occupancy
 O  O1  1  0.81102  0.93684  0.78769  1
 O  O2  1  0.42822  0.87964  0.60942  1
 O  O3  1  0.07178  0.37964  0.39058  1
 O  O4  1  0.57178  0.12036  0.39058  1
 O  O5  1  0.30474  0.43805  0.13827  1
 O  O6  1  0.00742  0.29530  0.89833  1
 O  O7  1  0.49258  0.79530  0.10167  1
 O  O8  1  0.99258  0.70470  0.10167  1
 O  O9  1  0.50742  0.20470  0.89833  1
 O  O10  1  0.92822  0.62036  0.60942  1
 O  O11  1  0.51754  0.64361  0.38612  1
 O  O12  1  0.48246  0.35639  0.61388  1
 O  O13  1  0.31102  0.56316  0.78769  1
 O  O14  1  0.18898  0.06316  0.21231  1
 O  O15  1  0.68898  0.43684  0.21231  1
 O  O16  1  0.19526  0.93805  0.86173  1
 O  O17  1  0.69526  0.56195  0.86173  1
 O  O18  1  0.80474  0.06195  0.13827  1
 O  O19  1  0.01754  0.85639  0.38612  1
 O  O20  1  0.98246  0.14361  0.61388  1
 Si  Si1  1  0.49166  0.59567  0.20161  1
 Si  Si2  1  0.00834  0.09567  0.79839  1
 Si  Si3  1  -0.00834  0.90433  0.20161  1
 Si  Si4  1  0.50834  0.40433  0.79839  1
 Tm  Tm1  1  0.52055  0.85926  0.85889  1
 Tm  Tm2  1  0.97945  0.35926  0.14111  1
 Tm  Tm3  1  0.47945  0.14074  0.14111  1
 Tm  Tm4  1  0.02055  0.64074  0.85889  1
 Tm  Tm5  1  0.76856  0.37973  0.46906  1
 Tm  Tm6  1  0.73144  0.87973  0.53094  1
 Tm  Tm7  1  0.23144  0.62027  0.53094  1
 Tm  Tm8  1  0.26856  0.12027  0.46906  1
