CIF file written using JARVIS-Tools package.
data_ErVO4
_symmetry_space_group_name_H-M  'I4_1/a'
_cell_length_a       5.02835
_cell_length_b       5.02833
_cell_length_c       6.60081
_cell_angle_alpha    112.389
_cell_angle_beta     112.389
_cell_angle_gamma    90.0013

_symmetry_Int_Tables_number  88
_chemical_formula_structural  ErVO4
_chemical_formula_sum  Er2V2O8
_cell_volume  140.61311886086494
_cell_formula_units_Z  2
loop_
  _symmetry_equiv_pos_site_id
 _symmetry_equiv_pos_as_xyz
 1  'x, y, z'
loop_
 _atom_site_type_symbol
 _atom_site_label
 _atom_site_symmetry_multiplicity
 _atom_site_fract_x
 _atom_site_fract_y
 _atom_site_fract_z
 _atom_site_fract_occupancy
 Er  Er1  1  0.87499  0.62499  0.25000  1
 Er  Er2  1  0.12501  0.37501  0.75000  1
 O  O1  1  0.19992  0.05749  0.41280  1
 O  O2  1  0.55751  0.21287  0.91280  1
 O  O3  1  0.85529  0.69992  0.91280  1
 O  O4  1  0.71288  0.35531  0.41281  1
 O  O5  1  0.28712  0.64469  0.58719  1
 O  O6  1  0.14471  0.30008  0.08720  1
 O  O7  1  0.44249  0.78713  0.08720  1
 O  O8  1  0.80008  0.94251  0.58720  1
 V  V1  1  0.37500  0.12501  0.25001  1
 V  V2  1  0.62500  0.87499  0.74999  1
