CIF file written using JARVIS-Tools package.
data_Sc2Ni12P7
_symmetry_space_group_name_H-M  'P-6'
_cell_length_a       9.03548
_cell_length_b       9.03548
_cell_length_c       3.60939
_cell_angle_alpha    90
_cell_angle_beta     90
_cell_angle_gamma    120

_symmetry_Int_Tables_number  174
_chemical_formula_structural  Sc2Ni12P7
_chemical_formula_sum  Sc2Ni2P7
_cell_volume  255.19205558634076
_cell_formula_units_Z  1
loop_
  _symmetry_equiv_pos_site_id
 _symmetry_equiv_pos_as_xyz
 1  'x, y, z'
loop_
 _atom_site_type_symbol
 _atom_site_label
 _atom_site_symmetry_multiplicity
 _atom_site_fract_x
 _atom_site_fract_y
 _atom_site_fract_z
 _atom_site_fract_occupancy
 Ni  Ni1  1  0.90673  0.77909  0.50000  1
 Ni  Ni2  1  0.05086  0.43504  0.50000  1
 Ni  Ni3  1  0.93664  0.56403  0.00000  1
 Ni  Ni4  1  0.43597  0.37262  0.00000  1
 Ni  Ni5  1  0.72381  0.84382  0.00000  1
 Ni  Ni6  1  0.15618  0.87998  0.00000  1
 Ni  Ni7  1  0.62738  0.06336  0.00000  1
 Ni  Ni8  1  0.87236  0.09327  0.50000  1
 Ni  Ni9  1  0.22091  0.12764  0.50000  1
 Ni  Ni10  1  0.38419  0.94914  0.50000  1
 Ni  Ni11  1  0.56496  0.61581  0.50000  1
 Ni  Ni12  1  0.12002  0.27619  0.00000  1
 P  P1  1  0.11927  0.70719  0.50000  1
 P  P2  1  0.29281  0.41208  0.50000  1
 P  P3  1  0.70546  0.58628  0.00000  1
 P  P4  1  0.41372  0.11918  0.00000  1
 P  P5  1  0.88082  0.29454  0.00000  1
 P  P6  1  0.58792  0.88073  0.50000  1
 P  P7  1  0.00000  0.00000  0.00000  1
 Sc  Sc1  1  0.33333  0.66667  0.00000  1
 Sc  Sc2  1  0.66667  0.33333  0.50000  1
