CIF file written using JARVIS-Tools package.
data_Ba3Bi2TeO9
_symmetry_space_group_name_H-M  'P-3c1'
_cell_length_a       6.26087
_cell_length_b       6.26087
_cell_length_c       14.9067
_cell_angle_alpha    90
_cell_angle_beta     90
_cell_angle_gamma    120

_symmetry_Int_Tables_number  165
_chemical_formula_structural  Ba3Bi2TeO9
_chemical_formula_sum  Ba6Bi4Te2O8
_cell_volume  506.03455372448775
_cell_formula_units_Z  2
loop_
  _symmetry_equiv_pos_site_id
 _symmetry_equiv_pos_as_xyz
 1  'x, y, z'
loop_
 _atom_site_type_symbol
 _atom_site_label
 _atom_site_symmetry_multiplicity
 _atom_site_fract_x
 _atom_site_fract_y
 _atom_site_fract_z
 _atom_site_fract_occupancy
 Ba  Ba1  1  0.33333  0.66667  0.08390  1
 Ba  Ba2  1  0.66667  0.33333  0.91610  1
 Ba  Ba3  1  0.33333  0.66667  0.58390  1
 Ba  Ba4  1  0.66667  0.33333  0.41610  1
 Ba  Ba5  1  0.00000  0.00000  0.25000  1
 Ba  Ba6  1  0.00000  0.00000  0.75000  1
 Bi  Bi1  1  0.33333  0.66667  0.83417  1
 Bi  Bi2  1  0.66667  0.33333  0.16583  1
 Bi  Bi3  1  0.33333  0.66667  0.33417  1
 Bi  Bi4  1  0.66667  0.33333  0.66583  1
 O  O1  1  0.21017  0.28843  0.92432  1
 O  O2  1  0.92174  0.71157  0.57568  1
 O  O3  1  -0.00000  0.55736  0.25000  1
 O  O4  1  0.07826  0.78983  0.92432  1
 O  O5  1  0.92174  0.21017  0.07568  1
 O  O6  1  0.78983  0.07826  0.57568  1
 O  O7  1  0.78983  0.71157  0.07568  1
 O  O8  1  0.71157  0.78983  0.42432  1
 O  O9  1  0.55736  0.55736  0.75000  1
 O  O10  1  0.44264  0.44264  0.25000  1
 O  O11  1  0.21017  0.92174  0.42432  1
 O  O12  1  0.28843  0.07826  0.07568  1
 O  O13  1  0.55736  -0.00000  0.25000  1
 O  O14  1  0.44264  0.00000  0.75000  1
 O  O15  1  0.00000  0.44264  0.75000  1
 O  O16  1  0.28843  0.21017  0.57568  1
 O  O17  1  0.07826  0.28843  0.42432  1
 O  O18  1  0.71157  0.92174  0.92432  1
 Te  Te1  1  0.00000  0.00000  0.50000  1
 Te  Te2  1  0.00000  0.00000  0.00000  1
