CIF file written using JARVIS-Tools package.
data_RbSnF3
_symmetry_space_group_name_H-M  'R-3'
_cell_length_a       6.51383
_cell_length_b       6.51382
_cell_length_c       6.51382
_cell_angle_alpha    62.7826
_cell_angle_beta     62.7826
_cell_angle_gamma    62.7826

_symmetry_Int_Tables_number  148
_chemical_formula_structural  RbSnF3
_chemical_formula_sum  Rb2Sn2F6
_cell_volume  207.52382836859204
_cell_formula_units_Z  2
loop_
  _symmetry_equiv_pos_site_id
 _symmetry_equiv_pos_as_xyz
 1  'x, y, z'
loop_
 _atom_site_type_symbol
 _atom_site_label
 _atom_site_symmetry_multiplicity
 _atom_site_fract_x
 _atom_site_fract_y
 _atom_site_fract_z
 _atom_site_fract_occupancy
 F  F1  1  0.95571  0.74617  0.47311  1
 F  F2  1  0.74617  0.47311  0.95571  1
 F  F3  1  0.47311  0.95571  0.74617  1
 F  F4  1  0.04429  0.25383  0.52689  1
 F  F5  1  0.52689  0.04429  0.25383  1
 F  F6  1  0.25383  0.52689  0.04429  1
 Rb  Rb1  1  0.87630  0.87630  0.87630  1
 Rb  Rb2  1  0.12370  0.12370  0.12370  1
 Sn  Sn1  1  0.63668  0.63668  0.63668  1
 Sn  Sn2  1  0.36332  0.36332  0.36332  1
