CIF file written using JARVIS-Tools package.
data_LiVO3
_symmetry_space_group_name_H-M  'C2/m'
_cell_length_a       6.28726
_cell_length_b       6.28727
_cell_length_c       6.01461
_cell_angle_alpha    77.7888
_cell_angle_beta     77.7888
_cell_angle_gamma    26.57

_symmetry_Int_Tables_number  12
_chemical_formula_structural  LiVO3
_chemical_formula_sum  Li2V2O6
_cell_volume  103.80379047405678
_cell_formula_units_Z  2
loop_
  _symmetry_equiv_pos_site_id
 _symmetry_equiv_pos_as_xyz
 1  'x, y, z'
loop_
 _atom_site_type_symbol
 _atom_site_label
 _atom_site_symmetry_multiplicity
 _atom_site_fract_x
 _atom_site_fract_y
 _atom_site_fract_z
 _atom_site_fract_occupancy
 Li  Li1  1  -0.00000  0.00000  0.50000  1
 Li  Li2  1  0.00000  0.00000  0.00000  1
 O  O1  1  0.18162  0.18162  0.38006  1
 O  O2  1  0.82762  0.82762  0.03762  1
 O  O3  1  0.81838  0.81838  0.61994  1
 O  O4  1  0.47508  0.47508  0.75701  1
 O  O5  1  0.52492  0.52492  0.24299  1
 O  O6  1  0.17238  0.17238  0.96238  1
 V  V1  1  0.66918  0.66918  0.20138  1
 V  V2  1  0.33082  0.33082  0.79862  1
