CIF file written using JARVIS-Tools package.
data_KNaB2H8
_symmetry_space_group_name_H-M  'P3m1'
_cell_length_a       4.67732
_cell_length_b       4.67732
_cell_length_c       6.97818
_cell_angle_alpha    90
_cell_angle_beta     90
_cell_angle_gamma    120

_symmetry_Int_Tables_number  156
_chemical_formula_structural  KNaB2H8
_chemical_formula_sum  KNaB2H8
_cell_volume  132.21122862125318
_cell_formula_units_Z  1
loop_
  _symmetry_equiv_pos_site_id
 _symmetry_equiv_pos_as_xyz
 1  'x, y, z'
loop_
 _atom_site_type_symbol
 _atom_site_label
 _atom_site_symmetry_multiplicity
 _atom_site_fract_x
 _atom_site_fract_y
 _atom_site_fract_z
 _atom_site_fract_occupancy
 B  B1  1  0.33333  0.66667  0.66647  1
 B  B2  1  0.66667  0.33333  0.14526  1
 H  H1  1  0.33333  0.66667  0.84308  1
 H  H2  1  0.66667  0.33333  0.97018  1
 H  H3  1  0.80991  0.19009  0.20593  1
 H  H4  1  0.47685  0.52315  0.60903  1
 H  H5  1  0.80991  0.61982  0.20593  1
 H  H6  1  0.38018  0.19009  0.20593  1
 H  H7  1  0.04630  0.52315  0.60903  1
 H  H8  1  0.47685  0.95370  0.60903  1
 K  K1  1  0.00000  0.00000  0.84494  1
 Na  Na1  1  0.33333  0.66667  0.30122  1
