CIF file written using JARVIS-Tools package.
data_Ti4V
_symmetry_space_group_name_H-M  'Fmmm'
_cell_length_a       11.6181
_cell_length_b       11.4905
_cell_length_c       2.77208
_cell_angle_alpha    85.7365
_cell_angle_beta     80.4984
_cell_angle_gamma    13.765

_symmetry_Int_Tables_number  69
_chemical_formula_structural  Ti4V
_chemical_formula_sum  Ti4V
_cell_volume  80.80501593215924
_cell_formula_units_Z  1
loop_
  _symmetry_equiv_pos_site_id
 _symmetry_equiv_pos_as_xyz
 1  'x, y, z'
loop_
 _atom_site_type_symbol
 _atom_site_label
 _atom_site_symmetry_multiplicity
 _atom_site_fract_x
 _atom_site_fract_y
 _atom_site_fract_z
 _atom_site_fract_occupancy
 Ti  Ti1  1  0.40846  0.40846  0.59154  1
 Ti  Ti2  1  0.80137  0.80137  0.19863  1
 Ti  Ti3  1  0.19863  0.19863  0.80137  1
 Ti  Ti4  1  0.59154  0.59154  0.40846  1
 V  V1  1  0.00000  0.00000  0.00000  1
