CIF file written using JARVIS-Tools package.
data_BH3OF4
_symmetry_space_group_name_H-M  'P-1'
_cell_length_a       4.52211
_cell_length_b       5.95323
_cell_length_c       6.2765
_cell_angle_alpha    78.9773
_cell_angle_beta     80.3452
_cell_angle_gamma    85.9612

_symmetry_Int_Tables_number  2
_chemical_formula_structural  BH3OF4
_chemical_formula_sum  B2H6O2F8
_cell_volume  163.37557235701956
_cell_formula_units_Z  2
loop_
  _symmetry_equiv_pos_site_id
 _symmetry_equiv_pos_as_xyz
 1  'x, y, z'
loop_
 _atom_site_type_symbol
 _atom_site_label
 _atom_site_symmetry_multiplicity
 _atom_site_fract_x
 _atom_site_fract_y
 _atom_site_fract_z
 _atom_site_fract_occupancy
 B  B1  1  0.56824  0.79266  0.79708  1
 B  B2  1  0.43176  0.20734  0.20292  1
 F  F1  1  0.48425  0.34681  0.35474  1
 F  F2  1  0.51575  0.65319  0.64526  1
 F  F3  1  0.26045  0.02086  0.33038  1
 F  F4  1  0.73955  0.97914  0.66962  1
 F  F5  1  0.25925  0.34077  0.05196  1
 F  F6  1  0.74075  0.65923  0.94804  1
 F  F7  1  0.70053  0.12750  0.09633  1
 F  F8  1  0.29947  0.87250  0.90367  1
 H  H1  1  0.95078  0.16806  0.70492  1
 H  H2  1  0.04922  0.83194  0.29508  1
 H  H3  1  0.24235  0.32223  0.56982  1
 H  H4  1  0.75765  0.67777  0.43018  1
 H  H5  1  0.13865  0.31041  0.84109  1
 H  H6  1  0.86135  0.68959  0.15891  1
 O  O1  1  0.93026  0.69262  0.30357  1
 O  O2  1  0.06974  0.30738  0.69643  1
