CIF file written using JARVIS-Tools package.
data_Pb2IOF
_symmetry_space_group_name_H-M  'Cmme'
_cell_length_a       7.39509
_cell_length_b       7.39508
_cell_length_c       5.97586
_cell_angle_alpha    90
_cell_angle_beta     90
_cell_angle_gamma    132.431

_symmetry_Int_Tables_number  67
_chemical_formula_structural  Pb2IOF
_chemical_formula_sum  Pb4I2O2F2
_cell_volume  241.21078156260805
_cell_formula_units_Z  2
loop_
  _symmetry_equiv_pos_site_id
 _symmetry_equiv_pos_as_xyz
 1  'x, y, z'
loop_
 _atom_site_type_symbol
 _atom_site_label
 _atom_site_symmetry_multiplicity
 _atom_site_fract_x
 _atom_site_fract_y
 _atom_site_fract_z
 _atom_site_fract_occupancy
 F  F1  1  0.25000  0.25000  0.50000  1
 F  F2  1  0.75000  0.75000  0.50000  1
 I  I1  1  0.75000  0.25000  0.24465  1
 I  I2  1  0.25000  0.75000  0.75535  1
 O  O1  1  0.25000  0.25000  0.00000  1
 O  O2  1  0.75000  0.75000  0.00000  1
 Pb  Pb1  1  0.40659  0.59341  0.22058  1
 Pb  Pb2  1  0.59341  0.40659  0.77942  1
 Pb  Pb3  1  0.09341  0.90659  0.22058  1
 Pb  Pb4  1  0.90659  0.09341  0.77942  1
