CIF file written using JARVIS-Tools package.
data_U2Sb4Pd
_symmetry_space_group_name_H-M  'P-4m2'
_cell_length_a       4.40376
_cell_length_b       4.40376
_cell_length_c       9.23977
_cell_angle_alpha    90
_cell_angle_beta     90
_cell_angle_gamma    90

_symmetry_Int_Tables_number  115
_chemical_formula_structural  U2Sb4Pd
_chemical_formula_sum  U2Sb4Pd
_cell_volume  179.1874237814304
_cell_formula_units_Z  1
loop_
  _symmetry_equiv_pos_site_id
 _symmetry_equiv_pos_as_xyz
 1  'x, y, z'
loop_
 _atom_site_type_symbol
 _atom_site_label
 _atom_site_symmetry_multiplicity
 _atom_site_fract_x
 _atom_site_fract_y
 _atom_site_fract_z
 _atom_site_fract_occupancy
 Pd  Pd1  1  0.50000  0.50000  0.00000  1
 Sb  Sb1  1  0.50000  0.00000  0.16544  1
 Sb  Sb2  1  0.00000  0.50000  0.83456  1
 Sb  Sb3  1  0.50000  0.50000  0.50000  1
 Sb  Sb4  1  0.00000  0.00000  0.50000  1
 U  U1  1  0.50000  0.00000  0.76499  1
 U  U2  1  0.00000  0.50000  0.23501  1
