CIF file written using JARVIS-Tools package.
data_NaAlB14
_symmetry_space_group_name_H-M  'Imma'
_cell_length_a       5.84625
_cell_length_b       7.26939
_cell_length_c       7.2694
_cell_angle_alpha    68.9416
_cell_angle_beta     66.2891
_cell_angle_gamma    66.2891

_symmetry_Int_Tables_number  74
_chemical_formula_structural  NaAlB14
_chemical_formula_sum  Na2Al2B28
_cell_volume  251.68419776851107
_cell_formula_units_Z  2
loop_
  _symmetry_equiv_pos_site_id
 _symmetry_equiv_pos_as_xyz
 1  'x, y, z'
loop_
 _atom_site_type_symbol
 _atom_site_label
 _atom_site_symmetry_multiplicity
 _atom_site_fract_x
 _atom_site_fract_y
 _atom_site_fract_z
 _atom_site_fract_occupancy
 Al  Al1  1  -0.00000  0.50000  0.50000  1
 Al  Al2  1  0.50000  0.50000  0.50000  1
 B  B1  1  0.16610  0.30153  0.86626  1
 B  B2  1  0.32878  0.46490  0.87688  1
 B  B3  1  0.27935  0.89736  0.72327  1
 B  B4  1  0.58521  0.74762  0.58195  1
 B  B5  1  0.64676  0.47822  0.72826  1
 B  B6  1  0.66610  0.86626  0.30153  1
 B  B7  1  0.60000  0.89735  0.72328  1
 B  B8  1  0.82943  0.46490  0.87689  1
 B  B9  1  0.82878  0.87688  0.46490  1
 B  B10  1  0.22065  0.27673  0.10264  1
 B  B11  1  0.77935  0.72327  0.89736  1
 B  B12  1  0.17122  0.12312  0.53510  1
 B  B13  1  0.40000  0.10265  0.27672  1
 B  B14  1  0.08521  0.58195  0.74762  1
 B  B15  1  0.17057  0.53510  0.12311  1
 B  B16  1  0.10000  0.72328  0.89735  1
 B  B17  1  0.33390  0.13374  0.69847  1
 B  B18  1  0.35324  0.52178  0.27174  1
 B  B19  1  0.41479  0.25238  0.41805  1
 B  B20  1  0.72065  0.10264  0.27673  1
 B  B21  1  0.67122  0.53510  0.12312  1
 B  B22  1  0.67057  0.12311  0.53510  1
 B  B23  1  0.90000  0.27672  0.10265  1
 B  B24  1  0.83390  0.69847  0.13374  1
 B  B25  1  0.85324  0.27174  0.52178  1
 B  B26  1  0.91479  0.41805  0.25238  1
 B  B27  1  0.32943  0.87689  0.46490  1
 B  B28  1  0.14676  0.72826  0.47822  1
 Na  Na1  1  0.25000  0.90202  0.09798  1
 Na  Na2  1  0.75000  0.09798  0.90202  1
