CIF file written using JARVIS-Tools package.
data_Li4TeO5
_symmetry_space_group_name_H-M  'P-1'
_cell_length_a       5.12947
_cell_length_b       5.18743
_cell_length_c       7.88147
_cell_angle_alpha    76.9479
_cell_angle_beta     71.8799
_cell_angle_gamma    101.66

_symmetry_Int_Tables_number  2
_chemical_formula_structural  Li4TeO5
_chemical_formula_sum  Li8Te2O0
_cell_volume  185.57600098199936
_cell_formula_units_Z  2
loop_
  _symmetry_equiv_pos_site_id
 _symmetry_equiv_pos_as_xyz
 1  'x, y, z'
loop_
 _atom_site_type_symbol
 _atom_site_label
 _atom_site_symmetry_multiplicity
 _atom_site_fract_x
 _atom_site_fract_y
 _atom_site_fract_z
 _atom_site_fract_occupancy
 Li  Li1  1  0.10709  0.48667  0.31884  1
 Li  Li2  1  0.89291  0.51333  0.68116  1
 Li  Li3  1  0.50000  0.50000  0.50000  1
 Li  Li4  1  0.50000  -0.00000  -0.00000  1
 Li  Li5  1  0.34267  0.50604  0.88685  1
 Li  Li6  1  0.65733  0.49396  0.11315  1
 Li  Li7  1  0.69196  0.00992  0.60381  1
 Li  Li8  1  0.30804  -0.00992  0.39619  1
 O  O1  1  0.47101  0.24061  0.75016  1
 O  O2  1  0.91000  0.21542  -0.04453  1
 O  O3  1  0.09000  0.78458  0.04453  1
 O  O4  1  0.28184  0.76639  0.66771  1
 O  O5  1  0.71816  0.23361  0.33229  1
 O  O6  1  0.09117  0.24544  0.57050  1
 O  O7  1  0.72638  0.76054  0.84700  1
 O  O8  1  0.90883  0.75456  0.42950  1
 O  O9  1  0.52899  0.75939  0.24984  1
 O  O10  1  0.27362  0.23946  0.15300  1
 Te  Te1  1  0.89644  -0.00031  0.21282  1
 Te  Te2  1  0.10356  0.00031  0.78718  1
