CIF file written using JARVIS-Tools package.
data_CeOsRu
_symmetry_space_group_name_H-M  'Imma'
_cell_length_a       5.44219
_cell_length_b       5.44219
_cell_length_c       5.44219
_cell_angle_alpha    124.212
_cell_angle_beta     119.296
_cell_angle_gamma    87.0435

_symmetry_Int_Tables_number  74
_chemical_formula_structural  CeOsRu
_chemical_formula_sum  Ce2Os2Ru2
_cell_volume  110.52014137271827
_cell_formula_units_Z  2
loop_
  _symmetry_equiv_pos_site_id
 _symmetry_equiv_pos_as_xyz
 1  'x, y, z'
loop_
 _atom_site_type_symbol
 _atom_site_label
 _atom_site_symmetry_multiplicity
 _atom_site_fract_x
 _atom_site_fract_y
 _atom_site_fract_z
 _atom_site_fract_occupancy
 Ce  Ce1  1  0.12459  0.87459  0.25000  1
 Ce  Ce2  1  0.87541  0.12541  0.75000  1
 Os  Os1  1  0.50000  0.50000  0.50000  1
 Os  Os2  1  0.50000  -0.00000  -0.00000  1
 Ru  Ru1  1  0.50000  0.50000  -0.00000  1
 Ru  Ru2  1  0.00000  0.50000  0.50000  1
