CIF file written using JARVIS-Tools package.
data_Sc3Os
_symmetry_space_group_name_H-M  'P6_3/mmc'
_cell_length_a       6.21751
_cell_length_b       6.21751
_cell_length_c       4.63439
_cell_angle_alpha    90
_cell_angle_beta     90
_cell_angle_gamma    120

_symmetry_Int_Tables_number  194
_chemical_formula_structural  Sc3Os
_chemical_formula_sum  Sc6Os2
_cell_volume  155.15135712133085
_cell_formula_units_Z  2
loop_
  _symmetry_equiv_pos_site_id
 _symmetry_equiv_pos_as_xyz
 1  'x, y, z'
loop_
 _atom_site_type_symbol
 _atom_site_label
 _atom_site_symmetry_multiplicity
 _atom_site_fract_x
 _atom_site_fract_y
 _atom_site_fract_z
 _atom_site_fract_occupancy
 Os  Os1  1  0.66667  0.33333  0.25000  1
 Os  Os2  1  0.33333  0.66667  0.75000  1
 Sc  Sc1  1  0.82454  0.17546  0.75000  1
 Sc  Sc2  1  0.35092  0.17546  0.75000  1
 Sc  Sc3  1  0.82454  0.64908  0.75000  1
 Sc  Sc4  1  0.17546  0.82454  0.25000  1
 Sc  Sc5  1  0.64908  0.82454  0.25000  1
 Sc  Sc6  1  0.17546  0.35092  0.25000  1
