CIF file written using JARVIS-Tools package.
data_NiPt
_symmetry_space_group_name_H-M  'R-3m'
_cell_length_a       4.51733
_cell_length_b       4.51732
_cell_length_c       4.51732
_cell_angle_alpha    35.0479
_cell_angle_beta     35.0479
_cell_angle_gamma    35.0479

_symmetry_Int_Tables_number  166
_chemical_formula_structural  NiPt
_chemical_formula_sum  NiPt
_cell_volume  27.145087051339363
_cell_formula_units_Z  1
loop_
  _symmetry_equiv_pos_site_id
 _symmetry_equiv_pos_as_xyz
 1  'x, y, z'
loop_
 _atom_site_type_symbol
 _atom_site_label
 _atom_site_symmetry_multiplicity
 _atom_site_fract_x
 _atom_site_fract_y
 _atom_site_fract_z
 _atom_site_fract_occupancy
 Ni  Ni1  1  0.00000  0.00000  0.00000  1
 Pt  Pt1  1  0.50000  0.50000  0.50000  1
