CIF file written using JARVIS-Tools package.
data_Mg2FeO4
_symmetry_space_group_name_H-M  'P2_1/c'
_cell_length_a       4.9541
_cell_length_b       5.85454
_cell_length_c       10.9929
_cell_angle_alpha    90
_cell_angle_beta     118.304
_cell_angle_gamma    90

_symmetry_Int_Tables_number  14
_chemical_formula_structural  Mg2FeO4
_chemical_formula_sum  Mg8Fe4O6
_cell_volume  280.71787425263625
_cell_formula_units_Z  4
loop_
  _symmetry_equiv_pos_site_id
 _symmetry_equiv_pos_as_xyz
 1  'x, y, z'
loop_
 _atom_site_type_symbol
 _atom_site_label
 _atom_site_symmetry_multiplicity
 _atom_site_fract_x
 _atom_site_fract_y
 _atom_site_fract_z
 _atom_site_fract_occupancy
 Fe  Fe1  1  0.74847  0.87546  0.48476  1
 Fe  Fe2  1  0.74847  0.62454  0.98476  1
 Fe  Fe3  1  0.25153  0.12454  0.51524  1
 Fe  Fe4  1  0.25153  0.37546  0.01524  1
 Mg  Mg1  1  0.29420  0.87722  0.04032  1
 Mg  Mg2  1  0.70580  0.37722  0.45968  1
 Mg  Mg3  1  0.70580  0.12278  0.95968  1
 Mg  Mg4  1  0.99474  0.87304  0.75721  1
 Mg  Mg5  1  0.00526  0.12696  0.24279  1
 Mg  Mg6  1  0.99474  0.62696  0.25721  1
 Mg  Mg7  1  0.29420  0.62278  0.54032  1
 Mg  Mg8  1  0.00526  0.37304  0.74279  1
 O  O1  1  0.74158  0.86590  0.11091  1
 O  O2  1  0.30777  0.88621  0.39630  1
 O  O3  1  0.81039  0.84601  0.88703  1
 O  O4  1  0.82558  0.39441  0.88505  1
 O  O5  1  0.25842  0.36590  0.38909  1
 O  O6  1  0.17442  0.89441  0.61495  1
 O  O7  1  0.18961  0.15399  0.11297  1
 O  O8  1  0.74158  0.63410  0.61091  1
 O  O9  1  0.81039  0.65399  0.38703  1
 O  O10  1  0.69223  0.38621  0.10370  1
 O  O11  1  0.25842  0.13410  0.88909  1
 O  O12  1  0.82558  0.10559  0.38505  1
 O  O13  1  0.30777  0.61379  0.89630  1
 O  O14  1  0.17442  0.60559  0.11495  1
 O  O15  1  0.18961  0.34601  0.61297  1
 O  O16  1  0.69223  0.11379  0.60370  1
