CIF file written using JARVIS-Tools package.
data_H4CN2O
_symmetry_space_group_name_H-M  'P-42_1m'
_cell_length_a       5.50445
_cell_length_b       5.50445
_cell_length_c       4.6806
_cell_angle_alpha    90
_cell_angle_beta     90
_cell_angle_gamma    90

_symmetry_Int_Tables_number  113
_chemical_formula_structural  H4CN2O
_chemical_formula_sum  H8C2N4O2
_cell_volume  141.81742533736013
_cell_formula_units_Z  2
loop_
  _symmetry_equiv_pos_site_id
 _symmetry_equiv_pos_as_xyz
 1  'x, y, z'
loop_
 _atom_site_type_symbol
 _atom_site_label
 _atom_site_symmetry_multiplicity
 _atom_site_fract_x
 _atom_site_fract_y
 _atom_site_fract_z
 _atom_site_fract_occupancy
 C  C1  1  0.50000  0.00000  0.17740  1
 C  C2  1  0.00000  0.50000  0.82260  1
 H  H1  1  0.73664  0.76336  0.78082  1
 H  H2  1  0.26336  0.23664  0.78082  1
 H  H3  1  0.85260  0.64740  0.45567  1
 H  H4  1  0.14740  0.35260  0.45567  1
 H  H5  1  0.23664  0.73664  0.21918  1
 H  H6  1  0.76336  0.26336  0.21918  1
 H  H7  1  0.35260  0.85260  0.54433  1
 H  H8  1  0.64740  0.14740  0.54433  1
 N  N1  1  0.85161  0.64839  0.67417  1
 N  N2  1  0.14839  0.35161  0.67417  1
 N  N3  1  0.35161  0.85161  0.32583  1
 N  N4  1  0.64839  0.14839  0.32583  1
 O  O1  1  0.50000  0.00000  0.90433  1
 O  O2  1  0.00000  0.50000  0.09567  1
