CIF file written using JARVIS-Tools package.
data_K3AsS4
_symmetry_space_group_name_H-M  'Pnma'
_cell_length_a       9.08292
_cell_length_b       9.3255
_cell_length_c       10.5566
_cell_angle_alpha    90
_cell_angle_beta     90
_cell_angle_gamma    90

_symmetry_Int_Tables_number  62
_chemical_formula_structural  K3AsS4
_chemical_formula_sum  K2As4S6
_cell_volume  894.1741374827117
_cell_formula_units_Z  4
loop_
  _symmetry_equiv_pos_site_id
 _symmetry_equiv_pos_as_xyz
 1  'x, y, z'
loop_
 _atom_site_type_symbol
 _atom_site_label
 _atom_site_symmetry_multiplicity
 _atom_site_fract_x
 _atom_site_fract_y
 _atom_site_fract_z
 _atom_site_fract_occupancy
 As  As1  1  0.28009  0.02064  0.71317  1
 As  As2  1  0.71991  0.97936  0.21317  1
 As  As3  1  0.21991  0.52064  0.21317  1
 As  As4  1  0.78009  0.47936  0.71317  1
 K  K1  1  0.63995  0.41644  0.21318  1
 K  K2  1  0.55784  0.20003  0.50717  1
 K  K3  1  0.05784  0.29997  0.50717  1
 K  K4  1  0.44216  0.79997  0.00717  1
 K  K5  1  0.94216  0.70003  0.00717  1
 K  K6  1  0.55784  0.20003  0.91918  1
 K  K7  1  0.05784  0.29997  0.91918  1
 K  K8  1  0.94216  0.70003  0.41918  1
 K  K9  1  0.13995  0.08356  0.21318  1
 K  K10  1  0.86005  0.91644  0.71318  1
 K  K11  1  0.36005  0.58356  0.71318  1
 K  K12  1  0.44216  0.79997  0.41918  1
 S  S1  1  0.81340  0.24599  0.71317  1
 S  S2  1  0.84086  0.03693  0.38586  1
 S  S3  1  0.15914  0.96307  0.88586  1
 S  S4  1  0.65914  0.53693  0.88586  1
 S  S5  1  0.34086  0.46307  0.38586  1
 S  S6  1  0.50333  0.08894  0.21318  1
 S  S7  1  0.99667  0.58894  0.71318  1
 S  S8  1  0.15914  0.96307  0.54049  1
 S  S9  1  0.84086  0.03693  0.04049  1
 S  S10  1  0.65914  0.53693  0.54049  1
 S  S11  1  0.34086  0.46307  0.04049  1
 S  S12  1  0.68660  0.74599  0.21317  1
 S  S13  1  0.18660  0.75401  0.21317  1
 S  S14  1  0.49667  0.91106  0.71318  1
 S  S15  1  0.00333  0.41106  0.21318  1
 S  S16  1  0.31340  0.25401  0.71317  1
