CIF file written using JARVIS-Tools package.
data_Cr3O8
_symmetry_space_group_name_H-M  'P6_3mc'
_cell_length_a       5.62947
_cell_length_b       5.62948
_cell_length_c       8.87081
_cell_angle_alpha    90
_cell_angle_beta     90
_cell_angle_gamma    120

_symmetry_Int_Tables_number  186
_chemical_formula_structural  Cr3O8
_chemical_formula_sum  Cr6O6
_cell_volume  243.4612035406942
_cell_formula_units_Z  2
loop_
  _symmetry_equiv_pos_site_id
 _symmetry_equiv_pos_as_xyz
 1  'x, y, z'
loop_
 _atom_site_type_symbol
 _atom_site_label
 _atom_site_symmetry_multiplicity
 _atom_site_fract_x
 _atom_site_fract_y
 _atom_site_fract_z
 _atom_site_fract_occupancy
 Cr  Cr1  1  0.66586  0.83293  0.25007  1
 Cr  Cr2  1  0.83293  0.16707  0.75007  1
 Cr  Cr3  1  0.16707  0.33414  0.25007  1
 Cr  Cr4  1  0.83293  0.66586  0.75007  1
 Cr  Cr5  1  0.33414  0.16707  0.75007  1
 Cr  Cr6  1  0.16707  0.83293  0.25007  1
 O  O1  1  0.84755  0.15245  0.14517  1
 O  O2  1  0.69509  0.84755  0.64517  1
 O  O3  1  0.15245  0.30491  0.64517  1
 O  O4  1  0.84755  0.69509  0.14517  1
 O  O5  1  0.48518  0.51482  0.35667  1
 O  O6  1  0.15245  0.84755  0.64517  1
 O  O7  1  0.30491  0.15245  0.14517  1
 O  O8  1  0.51482  0.02964  0.85667  1
 O  O9  1  0.48518  0.97036  0.35667  1
 O  O10  1  0.51482  0.48518  0.85667  1
 O  O11  1  0.00000  0.00000  0.36763  1
 O  O12  1  0.00000  0.00000  0.86763  1
 O  O13  1  0.33333  0.66667  0.13178  1
 O  O14  1  0.97036  0.48518  0.85667  1
 O  O15  1  0.02964  0.51482  0.35667  1
 O  O16  1  0.66667  0.33333  0.63178  1
