CIF file written using JARVIS-Tools package.
data_YbBa3Ru2O9
_symmetry_space_group_name_H-M  'P6_3/mmc'
_cell_length_a       5.92428
_cell_length_b       5.92428
_cell_length_c       14.3508
_cell_angle_alpha    90
_cell_angle_beta     90
_cell_angle_gamma    120

_symmetry_Int_Tables_number  194
_chemical_formula_structural  YbBa3Ru2O9
_chemical_formula_sum  Yb2Ba6Ru4O8
_cell_volume  436.1932639204026
_cell_formula_units_Z  2
loop_
  _symmetry_equiv_pos_site_id
 _symmetry_equiv_pos_as_xyz
 1  'x, y, z'
loop_
 _atom_site_type_symbol
 _atom_site_label
 _atom_site_symmetry_multiplicity
 _atom_site_fract_x
 _atom_site_fract_y
 _atom_site_fract_z
 _atom_site_fract_occupancy
 Ba  Ba1  1  0.00000  0.00000  0.25000  1
 Ba  Ba2  1  0.00000  0.00000  0.75000  1
 Ba  Ba3  1  0.33333  0.66667  0.90846  1
 Ba  Ba4  1  0.66667  0.33333  0.40846  1
 Ba  Ba5  1  0.66667  0.33333  0.09154  1
 Ba  Ba6  1  0.33333  0.66667  0.59154  1
 O  O1  1  0.82147  0.64294  0.91038  1
 O  O2  1  0.98423  0.49211  0.75000  1
 O  O3  1  0.17853  0.35706  0.41038  1
 O  O4  1  0.50789  0.01577  0.75000  1
 O  O5  1  0.49211  0.50789  0.25000  1
 O  O6  1  0.50789  0.49211  0.75000  1
 O  O7  1  0.17853  0.35706  0.08962  1
 O  O8  1  0.35706  0.17853  0.91038  1
 O  O9  1  0.49211  0.98423  0.25000  1
 O  O10  1  0.01577  0.50789  0.25000  1
 O  O11  1  0.64294  0.82147  0.41038  1
 O  O12  1  0.17853  0.82147  0.08962  1
 O  O13  1  0.82147  0.64294  0.58962  1
 O  O14  1  0.82147  0.17853  0.58962  1
 O  O15  1  0.82147  0.17853  0.91038  1
 O  O16  1  0.35706  0.17853  0.58962  1
 O  O17  1  0.64294  0.82147  0.08962  1
 O  O18  1  0.17853  0.82147  0.41038  1
 Ru  Ru1  1  0.33333  0.66667  0.16379  1
 Ru  Ru2  1  0.66667  0.33333  0.66379  1
 Ru  Ru3  1  0.66667  0.33333  0.83621  1
 Ru  Ru4  1  0.33333  0.66667  0.33621  1
 Yb  Yb1  1  0.00000  0.00000  0.50000  1
 Yb  Yb2  1  0.00000  0.00000  0.00000  1
