CIF file written using JARVIS-Tools package.
data_Zn4FeSe5
_symmetry_space_group_name_H-M  'R3m'
_cell_length_a       16.6758
_cell_length_b       16.6758
_cell_length_c       16.6758
_cell_angle_alpha    13.8989
_cell_angle_beta     13.8989
_cell_angle_gamma    13.8989

_symmetry_Int_Tables_number  160
_chemical_formula_structural  Zn4FeSe5
_chemical_formula_sum  Zn4FeSe5
_cell_volume  232.860760074461
_cell_formula_units_Z  1
loop_
  _symmetry_equiv_pos_site_id
 _symmetry_equiv_pos_as_xyz
 1  'x, y, z'
loop_
 _atom_site_type_symbol
 _atom_site_label
 _atom_site_symmetry_multiplicity
 _atom_site_fract_x
 _atom_site_fract_y
 _atom_site_fract_z
 _atom_site_fract_occupancy
 Fe  Fe1  1  -0.00031  -0.00031  -0.00031  1
 Se  Se1  1  0.04912  0.04912  0.04912  1
 Se  Se2  1  0.44981  0.44981  0.44981  1
 Se  Se3  1  0.85004  0.85004  0.85004  1
 Se  Se4  1  0.25026  0.25026  0.25026  1
 Se  Se5  1  0.65065  0.65065  0.65065  1
 Zn  Zn1  1  0.39974  0.39974  0.39974  1
 Zn  Zn2  1  0.80001  0.80001  0.80001  1
 Zn  Zn3  1  0.20022  0.20022  0.20022  1
 Zn  Zn4  1  0.60047  0.60047  0.60047  1
