CIF file written using JARVIS-Tools package.
data_Cr4S3N2
_symmetry_space_group_name_H-M  'C2/m'
_cell_length_a       5.83289
_cell_length_b       3.12945
_cell_length_c       8.44839
_cell_angle_alpha    90
_cell_angle_beta     52.5992
_cell_angle_gamma    74.4393

_symmetry_Int_Tables_number  12
_chemical_formula_structural  Cr4S3N2
_chemical_formula_sum  Cr4S3N2
_cell_volume  115.31275311647823
_cell_formula_units_Z  1
loop_
  _symmetry_equiv_pos_site_id
 _symmetry_equiv_pos_as_xyz
 1  'x, y, z'
loop_
 _atom_site_type_symbol
 _atom_site_label
 _atom_site_symmetry_multiplicity
 _atom_site_fract_x
 _atom_site_fract_y
 _atom_site_fract_z
 _atom_site_fract_occupancy
 Cr  Cr1  1  0.31764  0.84118  0.64343  1
 Cr  Cr2  1  0.68236  0.15882  0.35657  1
 Cr  Cr3  1  0.54561  0.72720  0.10986  1
 Cr  Cr4  1  0.45439  0.27280  0.89014  1
 N  N1  1  0.48880  0.75560  0.36453  1
 N  N2  1  0.51120  0.24440  0.63547  1
 S  S1  1  0.00000  0.00000  0.00000  1
 S  S2  1  0.82627  0.58687  0.76526  1
 S  S3  1  0.17373  0.41313  0.23474  1
