CIF file written using JARVIS-Tools package.
data_Ni3Pb2SeS
_symmetry_space_group_name_H-M  'R3m'
_cell_length_a       5.70595
_cell_length_b       5.70595
_cell_length_c       5.70595
_cell_angle_alpha    59.883
_cell_angle_beta     59.8829
_cell_angle_gamma    59.883

_symmetry_Int_Tables_number  160
_chemical_formula_structural  Ni3Pb2SeS
_chemical_formula_sum  Ni3Pb2SeS
_cell_volume  131.01293619484898
_cell_formula_units_Z  1
loop_
  _symmetry_equiv_pos_site_id
 _symmetry_equiv_pos_as_xyz
 1  'x, y, z'
loop_
 _atom_site_type_symbol
 _atom_site_label
 _atom_site_symmetry_multiplicity
 _atom_site_fract_x
 _atom_site_fract_y
 _atom_site_fract_z
 _atom_site_fract_occupancy
 Ni  Ni1  1  0.99377  0.99377  0.50360  1
 Ni  Ni2  1  0.50360  0.99377  0.99377  1
 Ni  Ni3  1  0.99377  0.50360  0.99377  1
 Pb  Pb1  1  0.00013  0.00013  0.00013  1
 Pb  Pb2  1  0.50440  0.50440  0.50440  1
 S  S1  1  0.72589  0.72589  0.72589  1
 Se  Se1  1  0.27843  0.27843  0.27843  1
