CIF file written using JARVIS-Tools package.
data_Nd4S3NCl3
_symmetry_space_group_name_H-M  'P6_3mc'
_cell_length_a       9.31961
_cell_length_b       9.31961
_cell_length_c       6.86336
_cell_angle_alpha    90
_cell_angle_beta     90
_cell_angle_gamma    120

_symmetry_Int_Tables_number  186
_chemical_formula_structural  Nd4S3NCl3
_chemical_formula_sum  Nd8S6N2Cl6
_cell_volume  516.2529448401858
_cell_formula_units_Z  2
loop_
  _symmetry_equiv_pos_site_id
 _symmetry_equiv_pos_as_xyz
 1  'x, y, z'
loop_
 _atom_site_type_symbol
 _atom_site_label
 _atom_site_symmetry_multiplicity
 _atom_site_fract_x
 _atom_site_fract_y
 _atom_site_fract_z
 _atom_site_fract_occupancy
 Cl  Cl1  1  0.26022  0.13011  0.86091  1
 Cl  Cl2  1  0.73978  0.86989  0.36091  1
 Cl  Cl3  1  0.13011  0.26022  0.36091  1
 Cl  Cl4  1  0.86989  0.73978  0.86091  1
 Cl  Cl5  1  0.86989  0.13011  0.86091  1
 Cl  Cl6  1  0.13011  0.86989  0.36091  1
 N  N1  1  0.66667  0.33333  0.13144  1
 N  N2  1  0.33333  0.66667  0.63144  1
 Nd  Nd1  1  0.33333  0.66667  0.28796  1
 Nd  Nd2  1  0.20120  0.40240  0.75165  1
 Nd  Nd3  1  0.79880  0.20120  0.25165  1
 Nd  Nd4  1  0.66667  0.33333  0.78796  1
 Nd  Nd5  1  0.79880  0.59760  0.25165  1
 Nd  Nd6  1  0.59760  0.79880  0.75165  1
 Nd  Nd7  1  0.20120  0.79880  0.75165  1
 Nd  Nd8  1  0.40240  0.20120  0.25165  1
 S  S1  1  0.53146  0.46854  0.53177  1
 S  S2  1  0.53146  0.06291  0.53177  1
 S  S3  1  0.46854  0.53146  0.03177  1
 S  S4  1  0.06291  0.53146  0.03177  1
 S  S5  1  0.93709  0.46854  0.53177  1
 S  S6  1  0.46854  0.93709  0.03177  1
