CIF file written using JARVIS-Tools package.
data_Mn3CrAs4
_symmetry_space_group_name_H-M  'Pm'
_cell_length_a       3.45026
_cell_length_b       5.55959
_cell_length_c       6.08763
_cell_angle_alpha    89.8962
_cell_angle_beta     90
_cell_angle_gamma    90

_symmetry_Int_Tables_number  6
_chemical_formula_structural  Mn3CrAs4
_chemical_formula_sum  Mn3CrAs4
_cell_volume  116.77292617456564
_cell_formula_units_Z  1
loop_
  _symmetry_equiv_pos_site_id
 _symmetry_equiv_pos_as_xyz
 1  'x, y, z'
loop_
 _atom_site_type_symbol
 _atom_site_label
 _atom_site_symmetry_multiplicity
 _atom_site_fract_x
 _atom_site_fract_y
 _atom_site_fract_z
 _atom_site_fract_occupancy
 As  As1  1  0.50000  0.70101  0.91771  1
 As  As2  1  0.50000  0.20186  0.58298  1
 As  As3  1  0.00000  0.29666  0.08134  1
 As  As4  1  0.00000  0.80053  0.41961  1
 Cr  Cr1  1  0.50000  0.50303  0.30404  1
 Mn  Mn1  1  0.50000  0.00217  0.19414  1
 Mn  Mn2  1  0.00000  0.49764  0.69503  1
 Mn  Mn3  1  0.00000  0.99712  0.80516  1
