CIF file written using JARVIS-Tools package.
data_Rb2Cd3SnAs4
_symmetry_space_group_name_H-M  'Cm'
_cell_length_a       9.61932
_cell_length_b       9.61931
_cell_length_c       7.79295
_cell_angle_alpha    65.941
_cell_angle_beta     65.9411
_cell_angle_gamma    27.1304

_symmetry_Int_Tables_number  8
_chemical_formula_structural  Rb2Cd3SnAs4
_chemical_formula_sum  Rb2Cd3SnAs4
_cell_volume  298.5164193421683
_cell_formula_units_Z  1
loop_
  _symmetry_equiv_pos_site_id
 _symmetry_equiv_pos_as_xyz
 1  'x, y, z'
loop_
 _atom_site_type_symbol
 _atom_site_label
 _atom_site_symmetry_multiplicity
 _atom_site_fract_x
 _atom_site_fract_y
 _atom_site_fract_z
 _atom_site_fract_occupancy
 As  As1  1  0.36772  0.36772  0.30213  1
 As  As2  1  0.84548  0.84548  0.81757  1
 As  As3  1  0.63617  0.63617  0.69368  1
 As  As4  1  0.13627  0.13627  0.20075  1
 Cd  Cd1  1  0.19894  0.19894  0.47978  1
 Cd  Cd2  1  0.32083  0.32083  0.02672  1
 Cd  Cd3  1  0.81795  0.81795  0.49826  1
 Rb  Rb1  1  0.49296  0.49296  0.51525  1
 Rb  Rb2  1  0.99792  0.99792  -0.00522  1
 Sn  Sn1  1  0.68668  0.68668  0.97108  1
