CIF file written using JARVIS-Tools package.
data_YbGa7Au3
_symmetry_space_group_name_H-M  'R-3c'
_cell_length_a       8.50464
_cell_length_b       8.50464
_cell_length_c       8.50464
_cell_angle_alpha    58.188
_cell_angle_beta     58.188
_cell_angle_gamma    58.188

_symmetry_Int_Tables_number  167
_chemical_formula_structural  YbGa7Au3
_chemical_formula_sum  Yb2Ga4Au6
_cell_volume  416.90249598379955
_cell_formula_units_Z  2
loop_
  _symmetry_equiv_pos_site_id
 _symmetry_equiv_pos_as_xyz
 1  'x, y, z'
loop_
 _atom_site_type_symbol
 _atom_site_label
 _atom_site_symmetry_multiplicity
 _atom_site_fract_x
 _atom_site_fract_y
 _atom_site_fract_z
 _atom_site_fract_occupancy
 Au  Au1  1  0.43296  0.75000  0.06704  1
 Au  Au2  1  0.25000  0.93296  0.56704  1
 Au  Au3  1  0.56704  0.25000  0.93296  1
 Au  Au4  1  0.06704  0.43296  0.75000  1
 Au  Au5  1  0.75000  0.06704  0.43296  1
 Au  Au6  1  0.93296  0.56704  0.25000  1
 Ga  Ga1  1  0.35376  0.17142  0.57308  1
 Ga  Ga2  1  0.64624  0.82858  0.42692  1
 Ga  Ga3  1  0.82858  0.42692  0.64624  1
 Ga  Ga4  1  0.67142  0.85376  0.07308  1
 Ga  Ga5  1  0.85376  0.07308  0.67142  1
 Ga  Ga6  1  0.07308  0.67142  0.85376  1
 Ga  Ga7  1  0.92692  0.32858  0.14624  1
 Ga  Ga8  1  0.25000  0.25000  0.25000  1
 Ga  Ga9  1  0.75000  0.75000  0.75000  1
 Ga  Ga10  1  0.14624  0.92692  0.32858  1
 Ga  Ga11  1  0.32858  0.14624  0.92692  1
 Ga  Ga12  1  0.17142  0.57308  0.35376  1
 Ga  Ga13  1  0.42692  0.64624  0.82858  1
 Ga  Ga14  1  0.57308  0.35376  0.17142  1
 Yb  Yb1  1  0.00000  0.00000  0.00000  1
 Yb  Yb2  1  0.50000  0.50000  0.50000  1
