CIF file written using JARVIS-Tools package.
data_K4SnSe4
_symmetry_space_group_name_H-M  'Pnma'
_cell_length_a       8.36456
_cell_length_b       10.2952
_cell_length_c       14.3664
_cell_angle_alpha    90
_cell_angle_beta     90
_cell_angle_gamma    90

_symmetry_Int_Tables_number  62
_chemical_formula_structural  K4SnSe4
_chemical_formula_sum  K6Sn4Se6
_cell_volume  1237.1595452282072
_cell_formula_units_Z  4
loop_
  _symmetry_equiv_pos_site_id
 _symmetry_equiv_pos_as_xyz
 1  'x, y, z'
loop_
 _atom_site_type_symbol
 _atom_site_label
 _atom_site_symmetry_multiplicity
 _atom_site_fract_x
 _atom_site_fract_y
 _atom_site_fract_z
 _atom_site_fract_occupancy
 K  K1  1  0.00000  0.00000  0.00000  1
 K  K2  1  0.50000  0.00000  0.50000  1
 K  K3  1  0.00000  0.50000  0.00000  1
 K  K4  1  0.50000  0.50000  0.50000  1
 K  K5  1  0.49181  0.25000  0.08043  1
 K  K6  1  0.00819  0.25000  0.58043  1
 K  K7  1  0.50819  0.75000  0.91957  1
 K  K8  1  0.84103  0.04940  0.27541  1
 K  K9  1  0.99181  0.75000  0.41957  1
 K  K10  1  0.15897  0.54940  0.72459  1
 K  K11  1  0.65897  0.45060  0.77541  1
 K  K12  1  0.15897  0.95060  0.72459  1
 K  K13  1  0.65897  0.04940  0.77541  1
 K  K14  1  0.84103  0.45060  0.27541  1
 K  K15  1  0.34103  0.54940  0.22459  1
 K  K16  1  0.34103  0.95060  0.22459  1
 Se  Se1  1  0.38272  0.25000  0.66840  1
 Se  Se2  1  0.95273  0.25000  0.82663  1
 Se  Se3  1  0.54727  0.25000  0.32663  1
 Se  Se4  1  0.45273  0.75000  0.67337  1
 Se  Se5  1  0.04727  0.75000  0.17337  1
 Se  Se6  1  0.64398  0.54734  0.08132  1
 Se  Se7  1  0.14398  0.45266  0.41868  1
 Se  Se8  1  0.85602  0.95266  0.58132  1
 Se  Se9  1  0.35602  0.45266  0.91868  1
 Se  Se10  1  0.88272  0.75000  0.83160  1
 Se  Se11  1  0.64398  0.95266  0.08132  1
 Se  Se12  1  0.14398  0.04734  0.41868  1
 Se  Se13  1  0.61728  0.75000  0.33160  1
 Se  Se14  1  0.11728  0.25000  0.16840  1
 Se  Se15  1  0.35602  0.04734  0.91868  1
 Se  Se16  1  0.85602  0.54734  0.58132  1
 Sn  Sn1  1  0.76112  0.75000  0.66581  1
 Sn  Sn2  1  0.23888  0.25000  0.33419  1
 Sn  Sn3  1  0.26112  0.25000  0.83419  1
 Sn  Sn4  1  0.73888  0.75000  0.16581  1
