CIF file written using JARVIS-Tools package.
data_Dy3CuSiS7
_symmetry_space_group_name_H-M  'P6_3'
_cell_length_a       9.86908
_cell_length_b       9.86908
_cell_length_c       5.684
_cell_angle_alpha    90
_cell_angle_beta     90
_cell_angle_gamma    120

_symmetry_Int_Tables_number  173
_chemical_formula_structural  Dy3CuSiS7
_chemical_formula_sum  Dy6Cu2Si2S4
_cell_volume  479.4437112221185
_cell_formula_units_Z  2
loop_
  _symmetry_equiv_pos_site_id
 _symmetry_equiv_pos_as_xyz
 1  'x, y, z'
loop_
 _atom_site_type_symbol
 _atom_site_label
 _atom_site_symmetry_multiplicity
 _atom_site_fract_x
 _atom_site_fract_y
 _atom_site_fract_z
 _atom_site_fract_occupancy
 Cu  Cu1  1  0.00000  0.00000  0.70373  1
 Cu  Cu2  1  0.00000  0.00000  0.20373  1
 Dy  Dy1  1  0.77149  0.12908  0.74532  1
 Dy  Dy2  1  0.87092  0.64241  0.74532  1
 Dy  Dy3  1  0.64241  0.77149  0.24532  1
 Dy  Dy4  1  0.12908  0.35759  0.24532  1
 Dy  Dy5  1  0.35759  0.22851  0.74532  1
 Dy  Dy6  1  0.22851  0.87092  0.24532  1
 S  S1  1  0.33333  0.66667  0.46069  1
 S  S2  1  0.89486  0.41743  0.48278  1
 S  S3  1  0.25962  0.16449  0.22010  1
 S  S4  1  0.74038  0.83551  0.72010  1
 S  S5  1  0.47743  0.89486  0.98278  1
 S  S6  1  0.16449  0.90488  0.72010  1
 S  S7  1  0.09512  0.25962  0.72010  1
 S  S8  1  0.66667  0.33333  0.96069  1
 S  S9  1  0.58257  0.47743  0.48278  1
 S  S10  1  0.10514  0.58257  0.98278  1
 S  S11  1  0.90488  0.74038  0.22010  1
 S  S12  1  0.83551  0.09512  0.22010  1
 S  S13  1  0.52257  0.10514  0.48278  1
 S  S14  1  0.41743  0.52257  0.98278  1
 Si  Si1  1  0.66667  0.33333  0.33230  1
 Si  Si2  1  0.33333  0.66667  0.83230  1
