CIF file written using JARVIS-Tools package.
data_Li2MnCSO7
_symmetry_space_group_name_H-M  'P2_1/m'
_cell_length_a       4.81652
_cell_length_b       6.38705
_cell_length_c       9.14236
_cell_angle_alpha    90
_cell_angle_beta     97.0898
_cell_angle_gamma    90

_symmetry_Int_Tables_number  11
_chemical_formula_structural  Li2MnCSO7
_chemical_formula_sum  Li4Mn2C2S2O4
_cell_volume  279.0989436464778
_cell_formula_units_Z  2
loop_
  _symmetry_equiv_pos_site_id
 _symmetry_equiv_pos_as_xyz
 1  'x, y, z'
loop_
 _atom_site_type_symbol
 _atom_site_label
 _atom_site_symmetry_multiplicity
 _atom_site_fract_x
 _atom_site_fract_y
 _atom_site_fract_z
 _atom_site_fract_occupancy
 C  C1  1  0.27261  0.25000  0.07097  1
 C  C2  1  0.72739  0.75000  0.92903  1
 Li  Li1  1  0.78325  0.48327  0.16766  1
 Li  Li2  1  0.78325  0.01673  0.16766  1
 Li  Li3  1  0.21675  0.98327  0.83234  1
 Li  Li4  1  0.21675  0.51673  0.83234  1
 Mn  Mn1  1  0.25595  0.25000  0.36620  1
 Mn  Mn2  1  0.74405  0.75000  0.63380  1
 O  O1  1  0.67737  0.75000  0.06333  1
 O  O2  1  0.97842  0.75000  0.89252  1
 O  O3  1  0.48121  0.25000  0.17977  1
 O  O4  1  0.12609  0.93674  0.31206  1
 O  O5  1  0.12609  0.56326  0.31206  1
 O  O6  1  0.02158  0.25000  0.10748  1
 O  O7  1  0.54670  0.75000  0.41328  1
 O  O8  1  0.87391  0.06326  0.68794  1
 O  O9  1  0.14988  0.75000  0.54657  1
 O  O10  1  0.87391  0.43674  0.68794  1
 O  O11  1  0.85012  0.25000  0.45343  1
 O  O12  1  0.51879  0.75000  0.82023  1
 O  O13  1  0.45330  0.25000  0.58672  1
 O  O14  1  0.32263  0.25000  0.93667  1
 S  S1  1  0.76590  0.25000  0.60336  1
 S  S2  1  0.23410  0.75000  0.39664  1
