CIF file written using JARVIS-Tools package.
data_LaPbNO5
_symmetry_space_group_name_H-M  'Cm'
_cell_length_a       7.12582
_cell_length_b       7.12582
_cell_length_c       3.87414
_cell_angle_alpha    83.5702
_cell_angle_beta     83.5701
_cell_angle_gamma    38.4154

_symmetry_Int_Tables_number  8
_chemical_formula_structural  LaPbNO5
_chemical_formula_sum  LaPbNO5
_cell_volume  121.37051770261793
_cell_formula_units_Z  1
loop_
  _symmetry_equiv_pos_site_id
 _symmetry_equiv_pos_as_xyz
 1  'x, y, z'
loop_
 _atom_site_type_symbol
 _atom_site_label
 _atom_site_symmetry_multiplicity
 _atom_site_fract_x
 _atom_site_fract_y
 _atom_site_fract_z
 _atom_site_fract_occupancy
 La  La1  1  0.83227  0.83227  0.16496  1
 N  N1  1  0.48557  0.48557  0.49396  1
 O  O1  1  0.27470  0.27470  0.20045  1
 O  O2  1  0.73961  0.73961  0.70623  1
 O  O3  1  0.55447  0.55447  0.24533  1
 O  O4  1  0.68499  0.21534  0.62013  1
 O  O5  1  0.21534  0.68499  0.62013  1
 Pb  Pb1  1  0.17104  0.17104  0.74083  1
