CIF file written using JARVIS-Tools package.
data_CoHO2
_symmetry_space_group_name_H-M  'R-3m'
_cell_length_a       4.63101
_cell_length_b       4.63047
_cell_length_c       4.63051
_cell_angle_alpha    36.2009
_cell_angle_beta     36.192
_cell_angle_gamma    36.1921

_symmetry_Int_Tables_number  166
_chemical_formula_structural  CoHO2
_chemical_formula_sum  CoHO2
_cell_volume  30.98234912562232
_cell_formula_units_Z  1
loop_
  _symmetry_equiv_pos_site_id
 _symmetry_equiv_pos_as_xyz
 1  'x, y, z'
loop_
 _atom_site_type_symbol
 _atom_site_label
 _atom_site_symmetry_multiplicity
 _atom_site_fract_x
 _atom_site_fract_y
 _atom_site_fract_z
 _atom_site_fract_occupancy
 Co  Co1  1  0.00000  0.00000  0.00000  1
 H  H1  1  0.50000  0.50000  0.50000  1
 O  O1  1  0.40678  0.40701  0.40701  1
 O  O2  1  0.59322  0.59299  0.59299  1
