CIF file written using JARVIS-Tools package.
data_Hf4C3N
_symmetry_space_group_name_H-M  'R-3m'
_cell_length_a       10.8292
_cell_length_b       10.8292
_cell_length_c       10.8292
_cell_angle_alpha    17.3733
_cell_angle_beta     17.3733
_cell_angle_gamma    17.3733

_symmetry_Int_Tables_number  166
_chemical_formula_structural  Hf4C3N
_chemical_formula_sum  Hf4C3N
_cell_volume  98.81027187416134
_cell_formula_units_Z  1
loop_
  _symmetry_equiv_pos_site_id
 _symmetry_equiv_pos_as_xyz
 1  'x, y, z'
loop_
 _atom_site_type_symbol
 _atom_site_label
 _atom_site_symmetry_multiplicity
 _atom_site_fract_x
 _atom_site_fract_y
 _atom_site_fract_z
 _atom_site_fract_occupancy
 C  C1  1  0.25168  0.25168  0.25168  1
 C  C2  1  0.50000  0.50000  0.50000  1
 C  C3  1  0.74832  0.74832  0.74832  1
 Hf  Hf1  1  0.87457  0.87457  0.87457  1
 Hf  Hf2  1  0.12543  0.12543  0.12543  1
 Hf  Hf3  1  0.37607  0.37607  0.37607  1
 Hf  Hf4  1  0.62393  0.62393  0.62393  1
 N  N1  1  0.00000  0.00000  0.00000  1
