CIF file written using JARVIS-Tools package.
data_Li4Ga3Si3BrO12
_symmetry_space_group_name_H-M  'P-43n'
_cell_length_a       8.59562
_cell_length_b       8.59562
_cell_length_c       8.59562
_cell_angle_alpha    90
_cell_angle_beta     90
_cell_angle_gamma    90

_symmetry_Int_Tables_number  218
_chemical_formula_structural  Li4Ga3Si3BrO12
_chemical_formula_sum  Li8Ga6Si6Br2O24
_cell_volume  635.084040326677
_cell_formula_units_Z  2
loop_
  _symmetry_equiv_pos_site_id
 _symmetry_equiv_pos_as_xyz
 1  'x, y, z'
loop_
 _atom_site_type_symbol
 _atom_site_label
 _atom_site_symmetry_multiplicity
 _atom_site_fract_x
 _atom_site_fract_y
 _atom_site_fract_z
 _atom_site_fract_occupancy
 Br  Br1  1  0.50000  0.50000  0.50000  1
 Br  Br2  1  0.00000  0.00000  0.00000  1
 Ga  Ga1  1  0.50000  0.00000  0.75000  1
 Ga  Ga2  1  0.25000  0.50000  0.00000  1
 Ga  Ga3  1  0.00000  0.75000  0.50000  1
 Ga  Ga4  1  0.00000  0.25000  0.50000  1
 Ga  Ga5  1  0.75000  0.50000  0.00000  1
 Ga  Ga6  1  0.50000  0.00000  0.25000  1
 Li  Li1  1  0.67677  0.32323  0.32323  1
 Li  Li2  1  0.67677  0.67677  0.67677  1
 Li  Li3  1  0.17677  0.17677  0.17677  1
 Li  Li4  1  0.82323  0.17677  0.82323  1
 Li  Li5  1  0.32323  0.67677  0.32323  1
 Li  Li6  1  0.17677  0.82323  0.82323  1
 Li  Li7  1  0.82323  0.82323  0.17677  1
 Li  Li8  1  0.32323  0.32323  0.67677  1
 O  O1  1  0.87346  0.59953  0.14595  1
 O  O2  1  0.90047  0.62654  0.64595  1
 O  O3  1  0.14595  0.12654  0.40047  1
 O  O4  1  0.59953  0.85405  0.12654  1
 O  O5  1  0.35405  0.90047  0.37346  1
 O  O6  1  0.37346  0.35405  0.90047  1
 O  O7  1  0.90047  0.37346  0.35405  1
 O  O8  1  0.40047  0.14595  0.12654  1
 O  O9  1  0.85405  0.87346  0.40047  1
 O  O10  1  0.09953  0.37346  0.64595  1
 O  O11  1  0.40047  0.85405  0.87346  1
 O  O12  1  0.14595  0.87346  0.59953  1
 O  O13  1  0.64595  0.09953  0.37346  1
 O  O14  1  0.37346  0.64595  0.09953  1
 O  O15  1  0.64595  0.90047  0.62654  1
 O  O16  1  0.62654  0.64595  0.90047  1
 O  O17  1  0.12654  0.40047  0.14595  1
 O  O18  1  0.35405  0.09953  0.62654  1
 O  O19  1  0.09953  0.62654  0.35405  1
 O  O20  1  0.87346  0.40047  0.85405  1
 O  O21  1  0.62654  0.35405  0.09953  1
 O  O22  1  0.59953  0.14595  0.87346  1
 O  O23  1  0.12654  0.59953  0.85405  1
 O  O24  1  0.85405  0.12654  0.59953  1
 Si  Si1  1  0.00000  0.50000  0.25000  1
 Si  Si2  1  0.50000  0.75000  0.00000  1
 Si  Si3  1  0.50000  0.25000  0.00000  1
 Si  Si4  1  0.00000  0.50000  0.75000  1
 Si  Si5  1  0.25000  0.00000  0.50000  1
 Si  Si6  1  0.75000  0.00000  0.50000  1
