CIF file written using JARVIS-Tools package.
data_MnFeSi2
_symmetry_space_group_name_H-M  'P2_1'
_cell_length_a       4.48059
_cell_length_b       4.48922
_cell_length_c       4.48947
_cell_angle_alpha    89.7966
_cell_angle_beta     90
_cell_angle_gamma    90

_symmetry_Int_Tables_number  4
_chemical_formula_structural  MnFeSi2
_chemical_formula_sum  Mn2Fe2Si4
_cell_volume  90.30233323169185
_cell_formula_units_Z  2
loop_
  _symmetry_equiv_pos_site_id
 _symmetry_equiv_pos_as_xyz
 1  'x, y, z'
loop_
 _atom_site_type_symbol
 _atom_site_label
 _atom_site_symmetry_multiplicity
 _atom_site_fract_x
 _atom_site_fract_y
 _atom_site_fract_z
 _atom_site_fract_occupancy
 Fe  Fe1  1  0.36447  0.36289  0.88489  1
 Fe  Fe2  1  0.86447  0.63711  0.11511  1
 Mn  Mn1  1  0.63544  0.13286  0.38758  1
 Mn  Mn2  1  0.13544  0.86714  0.61242  1
 Si  Si1  1  0.65742  0.65301  0.59308  1
 Si  Si2  1  0.15742  0.34699  0.40692  1
 Si  Si3  1  0.34267  0.83914  0.09165  1
 Si  Si4  1  0.84267  0.16086  0.90835  1
