CIF file written using JARVIS-Tools package.
data_LiF3
_symmetry_space_group_name_H-M  'P6_3/mmc'
_cell_length_a       4.4219
_cell_length_b       4.4219
_cell_length_c       4.87742
_cell_angle_alpha    90
_cell_angle_beta     90
_cell_angle_gamma    120

_symmetry_Int_Tables_number  194
_chemical_formula_structural  LiF3
_chemical_formula_sum  Li2F6
_cell_volume  82.59219945514468
_cell_formula_units_Z  2
loop_
  _symmetry_equiv_pos_site_id
 _symmetry_equiv_pos_as_xyz
 1  'x, y, z'
loop_
 _atom_site_type_symbol
 _atom_site_label
 _atom_site_symmetry_multiplicity
 _atom_site_fract_x
 _atom_site_fract_y
 _atom_site_fract_z
 _atom_site_fract_occupancy
 F  F1  1  0.83062  0.16938  0.75000  1
 F  F2  1  0.33876  0.16938  0.75000  1
 F  F3  1  0.83062  0.66124  0.75000  1
 F  F4  1  0.16938  0.83062  0.25000  1
 F  F5  1  0.66124  0.83062  0.25000  1
 F  F6  1  0.16938  0.33876  0.25000  1
 Li  Li1  1  0.66667  0.33333  0.25000  1
 Li  Li2  1  0.33333  0.66667  0.75000  1
