CIF file written using JARVIS-Tools package.
data_Mn3O4F2
_symmetry_space_group_name_H-M  'Cmmm'
_cell_length_a       6.41203
_cell_length_b       2.99814
_cell_length_c       10.154
_cell_angle_alpha    90
_cell_angle_beta     108.406
_cell_angle_gamma    90

_symmetry_Int_Tables_number  65
_chemical_formula_structural  Mn3O4F2
_chemical_formula_sum  Mn6O8F4
_cell_volume  185.2173513985594
_cell_formula_units_Z  2
loop_
  _symmetry_equiv_pos_site_id
 _symmetry_equiv_pos_as_xyz
 1  'x, y, z'
loop_
 _atom_site_type_symbol
 _atom_site_label
 _atom_site_symmetry_multiplicity
 _atom_site_fract_x
 _atom_site_fract_y
 _atom_site_fract_z
 _atom_site_fract_occupancy
 F  F1  1  0.06621  0.50000  0.13237  1
 F  F2  1  0.03649  0.00000  0.66666  1
 F  F3  1  0.63012  0.00000  0.66666  1
 F  F4  1  0.60050  0.50000  0.20097  1
 Mn  Mn1  1  0.17281  0.50000  0.34560  1
 Mn  Mn2  1  0.99160  0.00000  0.98317  1
 Mn  Mn3  1  0.67509  0.00000  0.35017  1
 Mn  Mn4  1  0.49388  0.50000  0.98773  1
 Mn  Mn5  1  0.83331  0.50000  0.66667  1
 Mn  Mn6  1  0.33331  0.00000  0.66667  1
 O  O1  1  0.97233  0.00000  0.33596  1
 O  O2  1  0.26977  0.50000  0.53959  1
 O  O3  1  0.73406  0.50000  0.46811  1
 O  O4  1  0.69436  0.00000  0.99737  1
 O  O5  1  0.30304  0.00000  0.99738  1
 O  O6  1  0.93262  0.50000  0.86523  1
 O  O7  1  0.36366  0.00000  0.33597  1
 O  O8  1  0.39686  0.50000  0.79375  1
