CIF file written using JARVIS-Tools package.
data_In3Hg
_symmetry_space_group_name_H-M  'P6_3/mmc'
_cell_length_a       6.69361
_cell_length_b       6.6936
_cell_length_c       5.59826
_cell_angle_alpha    90
_cell_angle_beta     90
_cell_angle_gamma    120

_symmetry_Int_Tables_number  194
_chemical_formula_structural  In3Hg
_chemical_formula_sum  In6Hg2
_cell_volume  217.22202045839592
_cell_formula_units_Z  2
loop_
  _symmetry_equiv_pos_site_id
 _symmetry_equiv_pos_as_xyz
 1  'x, y, z'
loop_
 _atom_site_type_symbol
 _atom_site_label
 _atom_site_symmetry_multiplicity
 _atom_site_fract_x
 _atom_site_fract_y
 _atom_site_fract_z
 _atom_site_fract_occupancy
 Hg  Hg1  1  0.33333  0.66667  0.75000  1
 Hg  Hg2  1  0.66667  0.33333  0.25000  1
 In  In1  1  0.16782  0.33563  0.25000  1
 In  In2  1  0.66437  0.83218  0.25000  1
 In  In3  1  0.16782  0.83218  0.25000  1
 In  In4  1  0.83218  0.66437  0.75000  1
 In  In5  1  0.33563  0.16782  0.75000  1
 In  In6  1  0.83218  0.16782  0.75000  1
