CIF file written using JARVIS-Tools package.
data_Rb3BiSe3
_symmetry_space_group_name_H-M  'P2_13'
_cell_length_a       10.1215
_cell_length_b       10.1215
_cell_length_c       10.1215
_cell_angle_alpha    90
_cell_angle_beta     90
_cell_angle_gamma    90

_symmetry_Int_Tables_number  198
_chemical_formula_structural  Rb3BiSe3
_chemical_formula_sum  Rb2Bi4Se2
_cell_volume  1036.888678439102
_cell_formula_units_Z  4
loop_
  _symmetry_equiv_pos_site_id
 _symmetry_equiv_pos_as_xyz
 1  'x, y, z'
loop_
 _atom_site_type_symbol
 _atom_site_label
 _atom_site_symmetry_multiplicity
 _atom_site_fract_x
 _atom_site_fract_y
 _atom_site_fract_z
 _atom_site_fract_occupancy
 Bi  Bi1  1  0.53487  0.46513  0.96513  1
 Bi  Bi2  1  0.03487  0.03487  0.03487  1
 Bi  Bi3  1  0.46513  0.96513  0.53487  1
 Bi  Bi4  1  0.96513  0.53487  0.46513  1
 Rb  Rb1  1  0.18616  0.31384  0.68616  1
 Rb  Rb2  1  0.31384  0.68616  0.18616  1
 Rb  Rb3  1  0.68616  0.18616  0.31384  1
 Rb  Rb4  1  0.81384  0.81384  0.81384  1
 Rb  Rb5  1  0.32403  0.32403  0.32403  1
 Rb  Rb6  1  0.06979  0.93021  0.43021  1
 Rb  Rb7  1  0.93021  0.43021  0.06979  1
 Rb  Rb8  1  0.56979  0.56979  0.56979  1
 Rb  Rb9  1  0.67597  0.82403  0.17597  1
 Rb  Rb10  1  0.82403  0.17597  0.67597  1
 Rb  Rb11  1  0.17597  0.67597  0.82403  1
 Rb  Rb12  1  0.43021  0.06979  0.93021  1
 Se  Se1  1  0.71970  0.88799  0.50098  1
 Se  Se2  1  0.11201  0.00098  0.78030  1
 Se  Se3  1  0.50098  0.71970  0.88799  1
 Se  Se4  1  0.00098  0.78030  0.11201  1
 Se  Se5  1  0.38799  0.99902  0.28030  1
 Se  Se6  1  0.61201  0.49902  0.21970  1
 Se  Se7  1  0.88799  0.50098  0.71970  1
 Se  Se8  1  0.49902  0.21970  0.61201  1
 Se  Se9  1  0.21970  0.61201  0.49902  1
 Se  Se10  1  0.78030  0.11201  0.00098  1
 Se  Se11  1  0.99902  0.28030  0.38799  1
 Se  Se12  1  0.28030  0.38799  0.99902  1
