CIF file written using JARVIS-Tools package.
data_CaFe2S4
_symmetry_space_group_name_H-M  'I4_1/amd'
_cell_length_a       6.72071
_cell_length_b       6.72071
_cell_length_c       7.3782
_cell_angle_alpha    117.093
_cell_angle_beta     117.094
_cell_angle_gamma    90

_symmetry_Int_Tables_number  141
_chemical_formula_structural  CaFe2S4
_chemical_formula_sum  Ca2Fe4S8
_cell_volume  254.9247024590238
_cell_formula_units_Z  2
loop_
  _symmetry_equiv_pos_site_id
 _symmetry_equiv_pos_as_xyz
 1  'x, y, z'
loop_
 _atom_site_type_symbol
 _atom_site_label
 _atom_site_symmetry_multiplicity
 _atom_site_fract_x
 _atom_site_fract_y
 _atom_site_fract_z
 _atom_site_fract_occupancy
 Ca  Ca1  1  0.37500  0.62500  0.75000  1
 Ca  Ca2  1  0.62500  0.37500  0.25000  1
 Fe  Fe1  1  -0.00000  -0.00000  0.50000  1
 Fe  Fe2  1  0.00000  0.50000  -0.00000  1
 Fe  Fe3  1  0.50000  -0.00000  0.50000  1
 Fe  Fe4  1  0.00000  0.00000  0.00000  1
 S  S1  1  0.79168  0.81050  0.58336  1
 S  S2  1  0.72714  0.20832  0.91664  1
 S  S3  1  0.18950  0.20832  0.91664  1
 S  S4  1  0.20832  0.18950  0.41664  1
 S  S5  1  0.20832  0.72714  0.41664  1
 S  S6  1  0.27286  0.79168  0.08336  1
 S  S7  1  0.79168  0.27286  0.58336  1
 S  S8  1  0.81050  0.79168  0.08336  1
