CIF file written using JARVIS-Tools package.
data_La2Ni4Ge3P
_symmetry_space_group_name_H-M  'P4mm'
_cell_length_a       4.15412
_cell_length_b       4.15412
_cell_length_c       9.86135
_cell_angle_alpha    90
_cell_angle_beta     90
_cell_angle_gamma    90

_symmetry_Int_Tables_number  99
_chemical_formula_structural  La2Ni4Ge3P
_chemical_formula_sum  La2Ni4Ge3P
_cell_volume  170.17489779278466
_cell_formula_units_Z  1
loop_
  _symmetry_equiv_pos_site_id
 _symmetry_equiv_pos_as_xyz
 1  'x, y, z'
loop_
 _atom_site_type_symbol
 _atom_site_label
 _atom_site_symmetry_multiplicity
 _atom_site_fract_x
 _atom_site_fract_y
 _atom_site_fract_z
 _atom_site_fract_occupancy
 Ge  Ge1  1  0.00000  0.00000  0.63473  1
 Ge  Ge2  1  0.00000  0.00000  0.36563  1
 Ge  Ge3  1  0.50000  0.50000  0.86930  1
 La  La1  1  0.00000  0.00000  0.00546  1
 La  La2  1  0.50000  0.50000  0.49673  1
 Ni  Ni1  1  0.00000  0.50000  0.24182  1
 Ni  Ni2  1  0.50000  0.00000  0.75322  1
 Ni  Ni3  1  0.50000  0.00000  0.24182  1
 Ni  Ni4  1  0.00000  0.50000  0.75322  1
 P  P1  1  0.50000  0.50000  0.13806  1
