CIF file written using JARVIS-Tools package.
data_KP
_symmetry_space_group_name_H-M  'P2_12_12_1'
_cell_length_a       6.0677
_cell_length_b       6.49223
_cell_length_c       11.2331
_cell_angle_alpha    90
_cell_angle_beta     90
_cell_angle_gamma    90

_symmetry_Int_Tables_number  19
_chemical_formula_structural  KP
_chemical_formula_sum  K8P8
_cell_volume  442.5044629839155
_cell_formula_units_Z  8
loop_
  _symmetry_equiv_pos_site_id
 _symmetry_equiv_pos_as_xyz
 1  'x, y, z'
loop_
 _atom_site_type_symbol
 _atom_site_label
 _atom_site_symmetry_multiplicity
 _atom_site_fract_x
 _atom_site_fract_y
 _atom_site_fract_z
 _atom_site_fract_occupancy
 K  K1  1  0.39793  0.38228  0.91494  1
 K  K2  1  0.89793  0.11772  0.08506  1
 K  K3  1  0.60207  0.88228  0.58506  1
 K  K4  1  0.10207  0.61772  0.41494  1
 K  K5  1  0.66821  0.66148  0.22162  1
 K  K6  1  0.16821  0.83852  0.77838  1
 K  K7  1  0.33179  0.16148  0.27838  1
 K  K8  1  0.83179  0.33852  0.72162  1
 P  P1  1  0.16918  0.68542  0.10509  1
 P  P2  1  0.66918  0.81458  0.89491  1
 P  P3  1  0.83082  0.18542  0.39491  1
 P  P4  1  0.33082  0.31458  0.60509  1
 P  P5  1  0.90449  0.57710  0.97208  1
 P  P6  1  0.40449  0.92290  0.02792  1
 P  P7  1  0.09551  0.07710  0.52792  1
 P  P8  1  0.59551  0.42290  0.47208  1
