CIF file written using JARVIS-Tools package.
data_TiMnN2
_symmetry_space_group_name_H-M  'P-3m1'
_cell_length_a       2.90064
_cell_length_b       7.11274
_cell_length_c       18.1442
_cell_angle_alpha    11.3115
_cell_angle_beta     61.3721
_cell_angle_gamma    52.3149

_symmetry_Int_Tables_number  164
_chemical_formula_structural  TiMnN2
_chemical_formula_sum  TiMnN2
_cell_volume  36.70869055421098
_cell_formula_units_Z  1
loop_
  _symmetry_equiv_pos_site_id
 _symmetry_equiv_pos_as_xyz
 1  'x, y, z'
loop_
 _atom_site_type_symbol
 _atom_site_label
 _atom_site_symmetry_multiplicity
 _atom_site_fract_x
 _atom_site_fract_y
 _atom_site_fract_z
 _atom_site_fract_occupancy
 Mn  Mn1  1  0.00000  -0.00000  -0.00001  1
 N  N1  1  -0.00000  0.52489  0.57087  1
 N  N2  1  0.00000  0.47508  0.42912  1
 Ti  Ti1  1  -0.00000  -0.00006  0.50001  1
