CIF file written using JARVIS-Tools package.
data_CdB2XeF10
_symmetry_space_group_name_H-M  'P2_1/c'
_cell_length_a       8.72282
_cell_length_b       9.15783
_cell_length_c       10.6612
_cell_angle_alpha    90
_cell_angle_beta     110.873
_cell_angle_gamma    90

_symmetry_Int_Tables_number  14
_chemical_formula_structural  CdB2XeF10
_chemical_formula_sum  Cd4B8Xe4F40
_cell_volume  795.7487583595195
_cell_formula_units_Z  4
loop_
  _symmetry_equiv_pos_site_id
 _symmetry_equiv_pos_as_xyz
 1  'x, y, z'
loop_
 _atom_site_type_symbol
 _atom_site_label
 _atom_site_symmetry_multiplicity
 _atom_site_fract_x
 _atom_site_fract_y
 _atom_site_fract_z
 _atom_site_fract_occupancy
 B  B1  1  0.20991  0.59734  0.28880  1
 B  B2  1  0.02468  0.72089  0.57624  1
 B  B3  1  0.29009  0.09734  0.71120  1
 B  B4  1  0.79009  0.40266  0.71120  1
 B  B5  1  0.47532  0.22089  0.42376  1
 B  B6  1  0.52468  0.77911  0.57624  1
 B  B7  1  0.70991  0.90266  0.28880  1
 B  B8  1  0.97532  0.27911  0.42376  1
 Cd  Cd1  1  0.65439  0.53731  0.36215  1
 Cd  Cd2  1  0.84561  0.03731  0.63785  1
 Cd  Cd3  1  0.15439  0.96269  0.36215  1
 Cd  Cd4  1  0.34561  0.46269  0.63785  1
 F  F1  1  0.14354  0.74090  0.24919  1
 F  F2  1  0.94819  0.79255  0.65598  1
 F  F3  1  0.13041  0.09146  0.72104  1
 F  F4  1  0.10879  0.49373  0.20673  1
 F  F5  1  0.57201  0.46848  0.14323  1
 F  F6  1  0.86959  0.90854  0.27896  1
 F  F7  1  0.42799  0.53152  0.85677  1
 F  F8  1  0.61282  0.67206  0.53276  1
 F  F9  1  0.44819  0.70745  0.65598  1
 F  F10  1  0.77396  0.42155  0.57430  1
 F  F11  1  0.92799  0.96848  0.85677  1
 F  F12  1  0.77026  0.62657  0.04235  1
 F  F13  1  0.89121  0.50627  0.79327  1
 F  F14  1  0.38718  0.32794  0.46724  1
 F  F15  1  0.07201  0.03152  0.14323  1
 F  F16  1  0.72974  0.12657  0.95765  1
 F  F17  1  0.13419  0.61535  0.65629  1
 F  F18  1  0.85646  0.25910  0.75081  1
 F  F19  1  0.63041  0.40854  0.72104  1
 F  F20  1  0.72604  0.92155  0.42570  1
 F  F21  1  0.90900  0.65425  0.46315  1
 F  F22  1  0.55181  0.29255  0.34402  1
 F  F23  1  0.88718  0.17206  0.46724  1
 F  F24  1  0.27396  0.07845  0.57430  1
 F  F25  1  0.40900  0.84575  0.46315  1
 F  F26  1  0.35646  0.24090  0.75081  1
 F  F27  1  0.11282  0.82794  0.53276  1
 F  F28  1  0.36581  0.11535  0.34371  1
 F  F29  1  0.22604  0.57845  0.42570  1
 F  F30  1  0.05181  0.20745  0.34402  1
 F  F31  1  0.36959  0.59146  0.27896  1
 F  F32  1  0.39121  0.99373  0.79327  1
 F  F33  1  0.64354  0.75910  0.24919  1
 F  F34  1  0.22974  0.37343  0.95765  1
 F  F35  1  0.63419  0.88465  0.65629  1
 F  F36  1  0.59100  0.15425  0.53685  1
 F  F37  1  0.27026  0.87343  0.04235  1
 F  F38  1  0.60879  0.00627  0.20673  1
 F  F39  1  0.86581  0.38465  0.34371  1
 F  F40  1  0.09100  0.34575  0.53685  1
 Xe  Xe1  1  0.84750  0.79310  0.95181  1
 Xe  Xe2  1  0.15250  0.20690  0.04819  1
 Xe  Xe3  1  0.34750  0.70690  0.95181  1
 Xe  Xe4  1  0.65250  0.29310  0.04819  1
