CIF file written using JARVIS-Tools package.
data_Er2Ti3Si4
_symmetry_space_group_name_H-M  'P4_12_12'
_cell_length_a       7.03906
_cell_length_b       7.03906
_cell_length_c       12.9139
_cell_angle_alpha    90
_cell_angle_beta     90
_cell_angle_gamma    90

_symmetry_Int_Tables_number  92
_chemical_formula_structural  Er2Ti3Si4
_chemical_formula_sum  Er8Ti2Si6
_cell_volume  639.8613744844631
_cell_formula_units_Z  4
loop_
  _symmetry_equiv_pos_site_id
 _symmetry_equiv_pos_as_xyz
 1  'x, y, z'
loop_
 _atom_site_type_symbol
 _atom_site_label
 _atom_site_symmetry_multiplicity
 _atom_site_fract_x
 _atom_site_fract_y
 _atom_site_fract_z
 _atom_site_fract_occupancy
 Er  Er1  1  0.34059  0.00141  0.46696  1
 Er  Er2  1  0.49859  0.84059  0.71696  1
 Er  Er3  1  0.50141  0.15941  0.21696  1
 Er  Er4  1  0.84059  0.49859  0.28304  1
 Er  Er5  1  0.15941  0.50141  0.78304  1
 Er  Er6  1  0.65941  0.99859  0.96696  1
 Er  Er7  1  0.00141  0.34059  0.53304  1
 Er  Er8  1  0.99859  0.65941  0.03304  1
 Si  Si1  1  0.45487  0.20848  0.81485  1
 Si  Si2  1  0.54513  0.79152  0.31485  1
 Si  Si3  1  0.29152  0.95487  0.06485  1
 Si  Si4  1  0.86902  0.79720  0.81743  1
 Si  Si5  1  0.29720  0.63098  0.56743  1
 Si  Si6  1  0.36902  0.70280  0.93257  1
 Si  Si7  1  0.70280  0.36902  0.06743  1
 Si  Si8  1  0.63098  0.29720  0.43257  1
 Si  Si9  1  0.79152  0.54513  0.68515  1
 Si  Si10  1  0.20280  0.13098  0.68257  1
 Si  Si11  1  0.95487  0.29152  0.93515  1
 Si  Si12  1  0.79720  0.86902  0.18257  1
 Si  Si13  1  0.20848  0.45487  0.18515  1
 Si  Si14  1  0.04513  0.70848  0.43515  1
 Si  Si15  1  0.13098  0.20280  0.31743  1
 Si  Si16  1  0.70848  0.04513  0.56485  1
 Ti  Ti1  1  0.49289  0.65257  0.12569  1
 Ti  Ti2  1  0.32781  0.32781  0.00000  1
 Ti  Ti3  1  0.82781  0.17219  0.75000  1
 Ti  Ti4  1  0.67219  0.67219  0.50000  1
 Ti  Ti5  1  0.15257  0.00711  0.87569  1
 Ti  Ti6  1  0.84743  0.99289  0.37569  1
 Ti  Ti7  1  0.50711  0.34743  0.62569  1
 Ti  Ti8  1  0.65257  0.49289  0.87431  1
 Ti  Ti9  1  0.34743  0.50711  0.37431  1
 Ti  Ti10  1  0.00711  0.15257  0.12431  1
 Ti  Ti11  1  0.99289  0.84743  0.62431  1
 Ti  Ti12  1  0.17219  0.82781  0.25000  1
