CIF file written using JARVIS-Tools package.
data_LaNi4Pt
_symmetry_space_group_name_H-M  'Cmmm'
_cell_length_a       5.18325
_cell_length_b       5.18325
_cell_length_c       4.02679
_cell_angle_alpha    90
_cell_angle_beta     90
_cell_angle_gamma    123.267

_symmetry_Int_Tables_number  65
_chemical_formula_structural  LaNi4Pt
_chemical_formula_sum  LaNi4Pt
_cell_volume  90.45508025725925
_cell_formula_units_Z  1
loop_
  _symmetry_equiv_pos_site_id
 _symmetry_equiv_pos_as_xyz
 1  'x, y, z'
loop_
 _atom_site_type_symbol
 _atom_site_label
 _atom_site_symmetry_multiplicity
 _atom_site_fract_x
 _atom_site_fract_y
 _atom_site_fract_z
 _atom_site_fract_occupancy
 La  La1  1  0.50000  0.50000  0.00000  1
 Ni  Ni1  1  0.18365  0.81635  0.00000  1
 Ni  Ni2  1  0.81635  0.18365  0.00000  1
 Ni  Ni3  1  0.00000  0.50000  0.50000  1
 Ni  Ni4  1  0.50000  0.00000  0.50000  1
 Pt  Pt1  1  0.00000  0.00000  0.50000  1
