CIF file written using JARVIS-Tools package.
data_RbSi4Pt4
_symmetry_space_group_name_H-M  'I4/m'
_cell_length_a       6.48323
_cell_length_b       6.48323
_cell_length_c       6.48323
_cell_angle_alpha    97.3764
_cell_angle_beta     97.3764
_cell_angle_gamma    138.007

_symmetry_Int_Tables_number  87
_chemical_formula_structural  RbSi4Pt4
_chemical_formula_sum  RbSi4Pt4
_cell_volume  170.21102949456275
_cell_formula_units_Z  1
loop_
  _symmetry_equiv_pos_site_id
 _symmetry_equiv_pos_as_xyz
 1  'x, y, z'
loop_
 _atom_site_type_symbol
 _atom_site_label
 _atom_site_symmetry_multiplicity
 _atom_site_fract_x
 _atom_site_fract_y
 _atom_site_fract_z
 _atom_site_fract_occupancy
 Pt  Pt1  1  0.14306  0.65893  0.84648  1
 Pt  Pt2  1  0.81245  0.29659  0.15352  1
 Pt  Pt3  1  0.29659  0.14306  0.48414  1
 Pt  Pt4  1  0.65893  0.81245  0.51586  1
 Rb  Rb1  1  0.47794  0.47794  -0.00000  1
 Si  Si1  1  0.35921  0.86503  0.26872  1
 Si  Si2  1  0.59631  0.09049  0.73128  1
 Si  Si3  1  0.09049  0.35921  0.49418  1
 Si  Si4  1  0.86503  0.59631  0.50582  1
