CIF file written using JARVIS-Tools package.
data_Pm2S3
_symmetry_space_group_name_H-M  'R-3c'
_cell_length_a       7.4964
_cell_length_b       7.4964
_cell_length_c       7.4964
_cell_angle_alpha    56.7162
_cell_angle_beta     56.7162
_cell_angle_gamma    56.7163

_symmetry_Int_Tables_number  167
_chemical_formula_structural  Pm2S3
_chemical_formula_sum  Pm4S6
_cell_volume  275.29536086493476
_cell_formula_units_Z  2
loop_
  _symmetry_equiv_pos_site_id
 _symmetry_equiv_pos_as_xyz
 1  'x, y, z'
loop_
 _atom_site_type_symbol
 _atom_site_label
 _atom_site_symmetry_multiplicity
 _atom_site_fract_x
 _atom_site_fract_y
 _atom_site_fract_z
 _atom_site_fract_occupancy
 Pm  Pm1  1  0.85333  0.85333  0.85333  1
 Pm  Pm2  1  0.64667  0.64667  0.64667  1
 Pm  Pm3  1  0.35333  0.35333  0.35333  1
 Pm  Pm4  1  0.14667  0.14667  0.14667  1
 S  S1  1  0.95262  0.25000  0.54738  1
 S  S2  1  0.25000  0.54738  0.95262  1
 S  S3  1  0.54738  0.95262  0.25000  1
 S  S4  1  0.45262  0.04738  0.75000  1
 S  S5  1  0.75000  0.45262  0.04738  1
 S  S6  1  0.04738  0.75000  0.45262  1
