CIF file written using JARVIS-Tools package.
data_CaC2
_symmetry_space_group_name_H-M  'Immm'
_cell_length_a       4.0727
_cell_length_b       6.69696
_cell_length_c       8.00275
_cell_angle_alpha    113.372
_cell_angle_beta     102.745
_cell_angle_gamma    84.9646

_symmetry_Int_Tables_number  71
_chemical_formula_structural  CaC2
_chemical_formula_sum  Ca4C8
_cell_volume  195.42606470112727
_cell_formula_units_Z  4
loop_
  _symmetry_equiv_pos_site_id
 _symmetry_equiv_pos_as_xyz
 1  'x, y, z'
loop_
 _atom_site_type_symbol
 _atom_site_label
 _atom_site_symmetry_multiplicity
 _atom_site_fract_x
 _atom_site_fract_y
 _atom_site_fract_z
 _atom_site_fract_occupancy
 C  C1  1  0.31459  0.24961  0.93570  1
 C  C2  1  0.68541  0.75039  0.06430  1
 C  C3  1  0.18536  0.25038  0.06430  1
 C  C4  1  0.81464  0.74962  0.93570  1
 C  C5  1  0.18525  0.75047  0.56429  1
 C  C6  1  0.81475  0.24953  0.43571  1
 C  C7  1  0.31473  0.74953  0.43571  1
 C  C8  1  0.68527  0.25047  0.56429  1
 Ca  Ca1  1  0.75002  0.49997  0.25001  1
 Ca  Ca2  1  0.24998  0.50003  0.74999  1
 Ca  Ca3  1  0.74994  0.00003  0.75000  1
 Ca  Ca4  1  0.25006  -0.00003  0.25000  1
