CIF file written using JARVIS-Tools package.
data_YO2
_symmetry_space_group_name_H-M  'Cmcm'
_cell_length_a       4.60031
_cell_length_b       4.60032
_cell_length_c       4.26114
_cell_angle_alpha    89.9002
_cell_angle_beta     89.9003
_cell_angle_gamma    108.975

_symmetry_Int_Tables_number  63
_chemical_formula_structural  YO2
_chemical_formula_sum  Y2O4
_cell_volume  85.27771914449458
_cell_formula_units_Z  2
loop_
  _symmetry_equiv_pos_site_id
 _symmetry_equiv_pos_as_xyz
 1  'x, y, z'
loop_
 _atom_site_type_symbol
 _atom_site_label
 _atom_site_symmetry_multiplicity
 _atom_site_fract_x
 _atom_site_fract_y
 _atom_site_fract_z
 _atom_site_fract_occupancy
 O  O1  1  0.07709  0.32298  0.74989  1
 O  O2  1  0.67702  0.92291  0.75011  1
 O  O3  1  0.92291  0.67702  0.25011  1
 O  O4  1  0.32298  0.07709  0.24989  1
 Y  Y1  1  0.16651  0.83349  0.75000  1
 Y  Y2  1  0.83349  0.16651  0.25000  1
