CIF file written using JARVIS-Tools package.
data_RbBeH3
_symmetry_space_group_name_H-M  'P2_1/m'
_cell_length_a       6.83577
_cell_length_b       5.63139
_cell_length_c       9.60029
_cell_angle_alpha    90
_cell_angle_beta     104.649
_cell_angle_gamma    90

_symmetry_Int_Tables_number  11
_chemical_formula_structural  RbBeH3
_chemical_formula_sum  Rb4Be4H2
_cell_volume  357.5493786429982
_cell_formula_units_Z  4
loop_
  _symmetry_equiv_pos_site_id
 _symmetry_equiv_pos_as_xyz
 1  'x, y, z'
loop_
 _atom_site_type_symbol
 _atom_site_label
 _atom_site_symmetry_multiplicity
 _atom_site_fract_x
 _atom_site_fract_y
 _atom_site_fract_z
 _atom_site_fract_occupancy
 Be  Be1  1  0.75185  0.25001  0.00094  1
 Be  Be2  1  0.24815  0.75001  0.49906  1
 Be  Be3  1  0.75185  0.24999  0.50094  1
 Be  Be4  1  0.24815  0.74999  0.99906  1
 H  H1  1  0.36112  0.75002  0.64354  1
 H  H2  1  0.81716  0.03398  0.06999  1
 H  H3  1  0.18282  0.53399  0.92996  1
 H  H4  1  0.36112  0.74998  0.14354  1
 H  H5  1  0.63888  0.24998  0.35646  1
 H  H6  1  0.81718  0.46601  0.07004  1
 H  H7  1  0.18284  0.53398  0.43001  1
 H  H8  1  0.18284  0.96602  0.93001  1
 H  H9  1  0.81718  0.03399  0.57004  1
 H  H10  1  0.18282  0.96601  0.42996  1
 H  H11  1  0.63888  0.25002  0.85646  1
 H  H12  1  0.81716  0.46602  0.56999  1
 Rb  Rb1  1  0.76667  0.75002  0.79925  1
 Rb  Rb2  1  0.23333  0.25002  0.70075  1
 Rb  Rb3  1  0.76667  0.74998  0.29925  1
 Rb  Rb4  1  0.23333  0.24998  0.20075  1
