CIF file written using JARVIS-Tools package.
data_Ca2SnS4
_symmetry_space_group_name_H-M  'Pnma'
_cell_length_a       6.99803
_cell_length_b       8.45083
_cell_length_c       12.6991
_cell_angle_alpha    90
_cell_angle_beta     90
_cell_angle_gamma    90

_symmetry_Int_Tables_number  62
_chemical_formula_structural  Ca2SnS4
_chemical_formula_sum  Ca8Sn4S6
_cell_volume  751.0125438225692
_cell_formula_units_Z  4
loop_
  _symmetry_equiv_pos_site_id
 _symmetry_equiv_pos_as_xyz
 1  'x, y, z'
loop_
 _atom_site_type_symbol
 _atom_site_label
 _atom_site_symmetry_multiplicity
 _atom_site_fract_x
 _atom_site_fract_y
 _atom_site_fract_z
 _atom_site_fract_occupancy
 Ca  Ca1  1  0.75000  0.09332  0.34501  1
 Ca  Ca2  1  0.75000  0.59332  0.15499  1
 Ca  Ca3  1  0.25000  0.90668  0.65499  1
 Ca  Ca4  1  0.25000  0.40668  0.84501  1
 Ca  Ca5  1  0.75000  0.37972  0.57359  1
 Ca  Ca6  1  0.75000  0.87972  0.92641  1
 Ca  Ca7  1  0.25000  0.62028  0.42641  1
 Ca  Ca8  1  0.25000  0.12028  0.07359  1
 S  S1  1  0.98679  0.86161  0.10985  1
 S  S2  1  0.01321  0.13839  0.89015  1
 S  S3  1  0.48679  0.63839  0.60985  1
 S  S4  1  0.51321  0.36161  0.39015  1
 S  S5  1  0.01321  0.63839  0.60985  1
 S  S6  1  0.25000  0.73617  0.84482  1
 S  S7  1  0.51321  0.86161  0.10985  1
 S  S8  1  0.48679  0.13839  0.89015  1
 S  S9  1  0.75000  0.05339  0.57972  1
 S  S10  1  0.75000  0.26383  0.15518  1
 S  S11  1  0.25000  0.94661  0.42028  1
 S  S12  1  0.25000  0.44661  0.07972  1
 S  S13  1  0.98679  0.36161  0.39015  1
 S  S14  1  0.75000  0.76383  0.34482  1
 S  S15  1  0.75000  0.55339  0.92028  1
 S  S16  1  0.25000  0.23617  0.65518  1
 Sn  Sn1  1  0.75000  0.28075  0.96728  1
 Sn  Sn2  1  0.75000  0.78075  0.53272  1
 Sn  Sn3  1  0.25000  0.71925  0.03272  1
 Sn  Sn4  1  0.25000  0.21925  0.46728  1
