CIF file written using JARVIS-Tools package.
data_Li3Cu3TeO8
_symmetry_space_group_name_H-M  'P-1'
_cell_length_a       5.86647
_cell_length_b       5.9325
_cell_length_c       6.2688
_cell_angle_alpha    58.8182
_cell_angle_beta     62.5559
_cell_angle_gamma    65.4549

_symmetry_Int_Tables_number  2
_chemical_formula_structural  Li3Cu3TeO8
_chemical_formula_sum  Li3Cu3TeO8
_cell_volume  161.09398455342387
_cell_formula_units_Z  1
loop_
  _symmetry_equiv_pos_site_id
 _symmetry_equiv_pos_as_xyz
 1  'x, y, z'
loop_
 _atom_site_type_symbol
 _atom_site_label
 _atom_site_symmetry_multiplicity
 _atom_site_fract_x
 _atom_site_fract_y
 _atom_site_fract_z
 _atom_site_fract_occupancy
 Cu  Cu1  1  0.50000  -0.00000  0.50000  1
 Cu  Cu2  1  0.00000  0.50000  0.50000  1
 Cu  Cu3  1  0.50000  0.50000  -0.00000  1
 Li  Li1  1  0.00000  0.50000  0.00000  1
 Li  Li2  1  0.50000  -0.00000  0.00000  1
 Li  Li3  1  0.00000  -0.00000  0.50000  1
 O  O1  1  0.24923  0.28202  0.30273  1
 O  O2  1  0.82148  0.21262  0.73095  1
 O  O3  1  0.24822  0.77263  0.79578  1
 O  O4  1  0.75077  0.71798  0.69727  1
 O  O5  1  0.76714  0.76608  0.17245  1
 O  O6  1  0.17852  0.78738  0.26905  1
 O  O7  1  0.75178  0.22737  0.20422  1
 O  O8  1  0.23286  0.23392  0.82755  1
 Te  Te1  1  0.00000  0.00000  0.00000  1
