CIF file written using JARVIS-Tools package.
data_Y2AlSi2
_symmetry_space_group_name_H-M  'Immm'
_cell_length_a       4.0829
_cell_length_b       5.62143
_cell_length_c       5.62143
_cell_angle_alpha    61.9788
_cell_angle_beta     68.7059
_cell_angle_gamma    68.706

_symmetry_Int_Tables_number  71
_chemical_formula_structural  Y2AlSi2
_chemical_formula_sum  Y2AlSi2
_cell_volume  103.17231643222243
_cell_formula_units_Z  1
loop_
  _symmetry_equiv_pos_site_id
 _symmetry_equiv_pos_as_xyz
 1  'x, y, z'
loop_
 _atom_site_type_symbol
 _atom_site_label
 _atom_site_symmetry_multiplicity
 _atom_site_fract_x
 _atom_site_fract_y
 _atom_site_fract_z
 _atom_site_fract_occupancy
 Al  Al1  1  0.00000  0.00000  0.00000  1
 Si  Si1  1  0.50000  0.29014  0.70986  1
 Si  Si2  1  0.50000  0.70986  0.29014  1
 Y  Y1  1  0.78848  0.71152  0.71152  1
 Y  Y2  1  0.21152  0.28848  0.28848  1
