CIF file written using JARVIS-Tools package.
data_KCr2FeO8
_symmetry_space_group_name_H-M  'C2/m'
_cell_length_a       4.97989
_cell_length_b       4.97988
_cell_length_c       7.57301
_cell_angle_alpha    85.146
_cell_angle_beta     85.1461
_cell_angle_gamma    65.7081

_symmetry_Int_Tables_number  12
_chemical_formula_structural  KCr2FeO8
_chemical_formula_sum  KCr2FeO8
_cell_volume  170.30635399659337
_cell_formula_units_Z  1
loop_
  _symmetry_equiv_pos_site_id
 _symmetry_equiv_pos_as_xyz
 1  'x, y, z'
loop_
 _atom_site_type_symbol
 _atom_site_label
 _atom_site_symmetry_multiplicity
 _atom_site_fract_x
 _atom_site_fract_y
 _atom_site_fract_z
 _atom_site_fract_occupancy
 Cr  Cr1  1  0.37624  0.37624  0.29933  1
 Cr  Cr2  1  0.62376  0.62376  0.70067  1
 Fe  Fe1  1  0.00000  -0.00000  0.50000  1
 K  K1  1  0.00000  0.00000  0.00000  1
 O  O1  1  0.31982  0.31982  0.10066  1
 O  O2  1  0.74736  0.23142  0.32293  1
 O  O3  1  0.25264  0.76858  0.67707  1
 O  O4  1  0.23142  0.74736  0.32293  1
 O  O5  1  0.22194  0.22194  0.45556  1
 O  O6  1  0.77806  0.77806  0.54444  1
 O  O7  1  0.76858  0.25264  0.67707  1
 O  O8  1  0.68018  0.68018  0.89934  1
