CIF file written using JARVIS-Tools package.
data_Ni6OF11
_symmetry_space_group_name_H-M  'Amm2'
_cell_length_a       4.64438
_cell_length_b       4.64452
_cell_length_c       9.30471
_cell_angle_alpha    89.999
_cell_angle_beta     90.0015
_cell_angle_gamma    89.0785

_symmetry_Int_Tables_number  38
_chemical_formula_structural  Ni6OF11
_chemical_formula_sum  Ni6OF
_cell_volume  200.68533449985694
_cell_formula_units_Z  1
loop_
  _symmetry_equiv_pos_site_id
 _symmetry_equiv_pos_as_xyz
 1  'x, y, z'
loop_
 _atom_site_type_symbol
 _atom_site_label
 _atom_site_symmetry_multiplicity
 _atom_site_fract_x
 _atom_site_fract_y
 _atom_site_fract_z
 _atom_site_fract_occupancy
 F  F1  1  0.70252  0.69052  0.66667  1
 F  F2  1  0.19969  0.80032  0.83427  1
 F  F3  1  0.78987  0.21013  0.16667  1
 F  F4  1  0.29956  0.30782  -0.00053  1
 F  F5  1  0.29956  0.30782  0.33386  1
 F  F6  1  0.19969  0.80032  0.49906  1
 F  F7  1  0.69219  0.70044  -0.00053  1
 F  F8  1  0.69218  0.70044  0.33386  1
 F  F9  1  0.80987  0.19013  0.49695  1
 F  F10  1  0.80987  0.19013  0.83639  1
 F  F11  1  0.30947  0.29748  0.66667  1
 Ni  Ni1  1  0.50498  0.49502  0.50011  1
 Ni  Ni2  1  0.50498  0.49502  0.83322  1
 Ni  Ni3  1  0.47445  0.52555  0.16667  1
 Ni  Ni4  1  0.00988  0.99012  0.00856  1
 Ni  Ni5  1  0.00988  0.99012  0.32478  1
 Ni  Ni6  1  0.00275  -0.00275  0.66667  1
 O  O1  1  0.18861  0.81139  0.16667  1
