CIF file written using JARVIS-Tools package.
data_ZnSiO3
_symmetry_space_group_name_H-M  'C2/c'
_cell_length_a       5.34848
_cell_length_b       6.78505
_cell_length_c       6.78505
_cell_angle_alpha    86.5044
_cell_angle_beta     74.4286
_cell_angle_gamma    74.4285

_symmetry_Int_Tables_number  15
_chemical_formula_structural  ZnSiO3
_chemical_formula_sum  Zn4Si4O2
_cell_volume  228.4684247939706
_cell_formula_units_Z  4
loop_
  _symmetry_equiv_pos_site_id
 _symmetry_equiv_pos_as_xyz
 1  'x, y, z'
loop_
 _atom_site_type_symbol
 _atom_site_label
 _atom_site_symmetry_multiplicity
 _atom_site_fract_x
 _atom_site_fract_y
 _atom_site_fract_z
 _atom_site_fract_occupancy
 O  O1  1  0.87548  0.85974  0.38161  1
 O  O2  1  0.47681  0.32751  0.38334  1
 O  O3  1  0.35670  0.03701  0.20962  1
 O  O4  1  0.37548  0.38161  0.85974  1
 O  O5  1  0.85670  0.20962  0.03701  1
 O  O6  1  0.12452  0.14026  0.61839  1
 O  O7  1  0.62452  0.61839  0.14026  1
 O  O8  1  -0.02319  0.38334  0.32751  1
 O  O9  1  0.64330  0.96299  0.79038  1
 O  O10  1  0.52319  0.67249  0.61666  1
 O  O11  1  0.14330  0.79038  0.96299  1
 O  O12  1  0.02319  0.61666  0.67249  1
 Si  Si1  1  0.76516  0.78148  0.61283  1
 Si  Si2  1  0.26516  0.61283  0.78148  1
 Si  Si3  1  0.73484  0.38717  0.21852  1
 Si  Si4  1  0.23484  0.21852  0.38717  1
 Zn  Zn1  1  0.75000  0.23454  0.76546  1
 Zn  Zn2  1  0.75000  0.89115  0.10885  1
 Zn  Zn3  1  0.25000  0.10885  0.89115  1
 Zn  Zn4  1  0.25000  0.76546  0.23454  1
