CIF file written using JARVIS-Tools package.
data_MgSc2
_symmetry_space_group_name_H-M  'C2/m'
_cell_length_a       6.10853
_cell_length_b       6.10853
_cell_length_c       7.62668
_cell_angle_alpha    76.0274
_cell_angle_beta     76.0274
_cell_angle_gamma    30.8496

_symmetry_Int_Tables_number  12
_chemical_formula_structural  MgSc2
_chemical_formula_sum  Mg2Sc4
_cell_volume  141.27821273513862
_cell_formula_units_Z  2
loop_
  _symmetry_equiv_pos_site_id
 _symmetry_equiv_pos_as_xyz
 1  'x, y, z'
loop_
 _atom_site_type_symbol
 _atom_site_label
 _atom_site_symmetry_multiplicity
 _atom_site_fract_x
 _atom_site_fract_y
 _atom_site_fract_z
 _atom_site_fract_occupancy
 Mg  Mg1  1  0.36035  0.36035  0.02646  1
 Mg  Mg2  1  0.63965  0.63965  0.97354  1
 Sc  Sc1  1  0.02431  0.02431  0.69241  1
 Sc  Sc2  1  0.30389  0.30389  0.63324  1
 Sc  Sc3  1  0.69611  0.69611  0.36676  1
 Sc  Sc4  1  0.97569  0.97569  0.30759  1
