CIF file written using JARVIS-Tools package.
data_K2TeS3
_symmetry_space_group_name_H-M  'P2_1/c'
_cell_length_a       6.32601
_cell_length_b       8.96363
_cell_length_c       14.6075
_cell_angle_alpha    90
_cell_angle_beta     115.603
_cell_angle_gamma    90

_symmetry_Int_Tables_number  14
_chemical_formula_structural  K2TeS3
_chemical_formula_sum  K8Te4S2
_cell_volume  746.9716097570915
_cell_formula_units_Z  4
loop_
  _symmetry_equiv_pos_site_id
 _symmetry_equiv_pos_as_xyz
 1  'x, y, z'
loop_
 _atom_site_type_symbol
 _atom_site_label
 _atom_site_symmetry_multiplicity
 _atom_site_fract_x
 _atom_site_fract_y
 _atom_site_fract_z
 _atom_site_fract_occupancy
 K  K1  1  0.66233  0.37009  0.41585  1
 K  K2  1  0.33767  0.87009  0.08415  1
 K  K3  1  0.33767  0.62991  0.58415  1
 K  K4  1  0.66233  0.12991  0.91585  1
 K  K5  1  0.00325  0.39186  0.74608  1
 K  K6  1  0.99675  0.89186  0.75392  1
 K  K7  1  0.99675  0.60814  0.25392  1
 K  K8  1  0.00325  0.10814  0.24608  1
 S  S1  1  0.08320  0.86692  0.41412  1
 S  S2  1  0.52432  0.83983  0.78021  1
 S  S3  1  0.47568  0.33983  0.71979  1
 S  S4  1  0.47568  0.16017  0.21979  1
 S  S5  1  0.52432  0.66017  0.28021  1
 S  S6  1  0.81697  0.83672  0.06317  1
 S  S7  1  0.18303  0.33672  0.43683  1
 S  S8  1  0.08320  0.63308  0.91412  1
 S  S9  1  0.81697  0.66328  0.56317  1
 S  S10  1  0.91680  0.13308  0.58588  1
 S  S11  1  0.91680  0.36692  0.08588  1
 S  S12  1  0.18303  0.16328  0.93683  1
 Te  Te1  1  0.71671  0.82718  0.42059  1
 Te  Te2  1  0.71671  0.67282  0.92059  1
 Te  Te3  1  0.28329  0.17282  0.57941  1
 Te  Te4  1  0.28329  0.32718  0.07941  1
