CIF file written using JARVIS-Tools package.
data_C
_symmetry_space_group_name_H-M  'Fmmm'
_cell_length_a       2.46566
_cell_length_b       2.46456
_cell_length_c       3.59201
_cell_angle_alpha    80.1039
_cell_angle_beta     69.9272
_cell_angle_gamma    59.9852

_symmetry_Int_Tables_number  69
_chemical_formula_structural  C
_chemical_formula_sum  C2
_cell_volume  17.75252290514849
_cell_formula_units_Z  2
loop_
  _symmetry_equiv_pos_site_id
 _symmetry_equiv_pos_as_xyz
 1  'x, y, z'
loop_
 _atom_site_type_symbol
 _atom_site_label
 _atom_site_symmetry_multiplicity
 _atom_site_fract_x
 _atom_site_fract_y
 _atom_site_fract_z
 _atom_site_fract_occupancy
 C  C1  1  0.16668  0.66662  0.50000  1
 C  C2  1  0.83331  0.33338  0.50000  1
