CIF file written using JARVIS-Tools package.
data_PrPtF7
_symmetry_space_group_name_H-M  'P2_1/c'
_cell_length_a       9.19314
_cell_length_b       5.53365
_cell_length_c       12.3817
_cell_angle_alpha    90
_cell_angle_beta     118.348
_cell_angle_gamma    90

_symmetry_Int_Tables_number  14
_chemical_formula_structural  PrPtF7
_chemical_formula_sum  Pr4Pt4F28
_cell_volume  554.3392507471206
_cell_formula_units_Z  4
loop_
  _symmetry_equiv_pos_site_id
 _symmetry_equiv_pos_as_xyz
 1  'x, y, z'
loop_
 _atom_site_type_symbol
 _atom_site_label
 _atom_site_symmetry_multiplicity
 _atom_site_fract_x
 _atom_site_fract_y
 _atom_site_fract_z
 _atom_site_fract_occupancy
 F  F1  1  0.96144  0.38486  0.77181  1
 F  F2  1  0.96965  0.25215  0.54746  1
 F  F3  1  0.48549  0.27513  0.36550  1
 F  F4  1  0.51451  0.72487  0.63450  1
 F  F5  1  0.48549  0.22487  0.86550  1
 F  F6  1  0.03856  0.61514  0.22819  1
 F  F7  1  0.51451  0.77513  0.13450  1
 F  F8  1  0.73909  0.07050  0.82470  1
 F  F9  1  0.27300  0.06343  0.96219  1
 F  F10  1  0.72700  0.93657  0.03781  1
 F  F11  1  0.27300  0.43657  0.46219  1
 F  F12  1  0.70833  0.07797  0.58819  1
 F  F13  1  0.29167  0.57797  0.91181  1
 F  F14  1  0.29167  0.92203  0.41181  1
 F  F15  1  0.70833  0.42203  0.08819  1
 F  F16  1  0.72700  0.56343  0.53781  1
 F  F17  1  0.03856  0.88486  0.72819  1
 F  F18  1  0.96144  0.11514  0.27181  1
 F  F19  1  0.96965  0.24785  0.04746  1
 F  F20  1  0.03035  0.75215  0.95254  1
 F  F21  1  0.72078  0.95454  0.37310  1
 F  F22  1  0.27922  0.45454  0.12690  1
 F  F23  1  0.27922  0.04546  0.62690  1
 F  F24  1  0.03035  0.74785  0.45254  1
 F  F25  1  0.73909  0.42950  0.32470  1
 F  F26  1  0.26091  0.57050  0.67530  1
 F  F27  1  0.26091  0.92950  0.17530  1
 F  F28  1  0.72078  0.54546  0.87310  1
 Pr  Pr1  1  0.81104  0.73715  0.73723  1
 Pr  Pr2  1  0.18896  0.23715  0.76277  1
 Pr  Pr3  1  0.18896  0.26285  0.26277  1
 Pr  Pr4  1  0.81104  0.76285  0.23723  1
 Pt  Pt1  1  0.27287  0.74366  0.54170  1
 Pt  Pt2  1  0.72713  0.24366  0.95830  1
 Pt  Pt3  1  0.72713  0.25634  0.45830  1
 Pt  Pt4  1  0.27287  0.75634  0.04170  1
