CIF file written using JARVIS-Tools package.
data_AlCo2Si2
_symmetry_space_group_name_H-M  'P-3m1'
_cell_length_a       3.9439
_cell_length_b       3.9439
_cell_length_c       4.64622
_cell_angle_alpha    90
_cell_angle_beta     90
_cell_angle_gamma    120

_symmetry_Int_Tables_number  164
_chemical_formula_structural  AlCo2Si2
_chemical_formula_sum  AlCo2Si2
_cell_volume  62.58680701786041
_cell_formula_units_Z  1
loop_
  _symmetry_equiv_pos_site_id
 _symmetry_equiv_pos_as_xyz
 1  'x, y, z'
loop_
 _atom_site_type_symbol
 _atom_site_label
 _atom_site_symmetry_multiplicity
 _atom_site_fract_x
 _atom_site_fract_y
 _atom_site_fract_z
 _atom_site_fract_occupancy
 Al  Al1  1  0.00000  0.00000  0.00000  1
 Co  Co1  1  0.33333  0.66667  0.83647  1
 Co  Co2  1  0.66667  0.33333  0.16353  1
 Si  Si1  1  0.66667  0.33333  0.65322  1
 Si  Si2  1  0.33333  0.66667  0.34678  1
