CIF file written using JARVIS-Tools package.
data_Ba2CuWO6
_symmetry_space_group_name_H-M  'I4/mmm'
_cell_length_a       5.60393
_cell_length_b       5.60396
_cell_length_c       5.9259
_cell_angle_alpha    118.22
_cell_angle_beta     118.219
_cell_angle_gamma    89.9977

_symmetry_Int_Tables_number  139
_chemical_formula_structural  Ba2CuWO6
_chemical_formula_sum  Ba2CuWO6
_cell_volume  138.3704901977864
_cell_formula_units_Z  1
loop_
  _symmetry_equiv_pos_site_id
 _symmetry_equiv_pos_as_xyz
 1  'x, y, z'
loop_
 _atom_site_type_symbol
 _atom_site_label
 _atom_site_symmetry_multiplicity
 _atom_site_fract_x
 _atom_site_fract_y
 _atom_site_fract_z
 _atom_site_fract_occupancy
 Ba  Ba1  1  0.25000  0.74999  0.49999  1
 Ba  Ba2  1  0.74999  0.25000  0.49999  1
 Cu  Cu1  1  0.00001  0.00001  0.00000  1
 O  O1  1  0.25375  0.74625  0.00000  1
 O  O2  1  0.74622  0.74622  0.99996  1
 O  O3  1  0.28047  0.28047  0.56098  1
 O  O4  1  0.74625  0.25375  0.00000  1
 O  O5  1  0.71952  0.71952  0.43902  1
 O  O6  1  0.25378  0.25378  0.00004  1
 W  W1  1  0.50000  0.50000  -0.00000  1
