CIF file written using JARVIS-Tools package.
data_VAs
_symmetry_space_group_name_H-M  'Pnma'
_cell_length_a       3.37492
_cell_length_b       5.89927
_cell_length_c       6.23925
_cell_angle_alpha    90
_cell_angle_beta     90
_cell_angle_gamma    90

_symmetry_Int_Tables_number  62
_chemical_formula_structural  VAs
_chemical_formula_sum  V4As4
_cell_volume  124.22074699205636
_cell_formula_units_Z  4
loop_
  _symmetry_equiv_pos_site_id
 _symmetry_equiv_pos_as_xyz
 1  'x, y, z'
loop_
 _atom_site_type_symbol
 _atom_site_label
 _atom_site_symmetry_multiplicity
 _atom_site_fract_x
 _atom_site_fract_y
 _atom_site_fract_z
 _atom_site_fract_occupancy
 As  As1  1  0.25864  0.19772  0.57655  1
 As  As2  1  0.75864  0.80228  0.42345  1
 As  As3  1  0.75864  0.30228  0.07655  1
 As  As4  1  0.25864  0.69772  0.92345  1
 V  V1  1  0.25866  0.00520  0.18445  1
 V  V2  1  0.75866  0.99480  0.81555  1
 V  V3  1  0.75866  0.49480  0.68445  1
 V  V4  1  0.25866  0.50520  0.31555  1
