CIF file written using JARVIS-Tools package.
data_ZnCu2SnSeS3
_symmetry_space_group_name_H-M  'P1'
_cell_length_a       5.53384
_cell_length_b       5.52598
_cell_length_c       6.78292
_cell_angle_alpha    114.142
_cell_angle_beta     114.237
_cell_angle_gamma    89.8607

_symmetry_Int_Tables_number  1
_chemical_formula_structural  ZnCu2SnSeS3
_chemical_formula_sum  ZnCu2SnSeS3
_cell_volume  169.14896285782245
_cell_formula_units_Z  1
loop_
  _symmetry_equiv_pos_site_id
 _symmetry_equiv_pos_as_xyz
 1  'x, y, z'
loop_
 _atom_site_type_symbol
 _atom_site_label
 _atom_site_symmetry_multiplicity
 _atom_site_fract_x
 _atom_site_fract_y
 _atom_site_fract_z
 _atom_site_fract_occupancy
 Cu  Cu1  1  0.97750  0.98077  0.98389  1
 Cu  Cu2  1  0.77339  0.24614  0.51414  1
 S  S1  1  0.88872  0.89831  0.25743  1
 S  S2  1  0.10699  0.63124  0.74014  1
 S  S3  1  0.63407  0.11492  0.73977  1
 Se  Se1  1  0.36972  0.35871  0.26129  1
 Sn  Sn1  1  0.50369  0.50627  0.99854  1
 Zn  Zn1  1  0.24591  0.76364  0.50480  1
