CIF file written using JARVIS-Tools package.
data_MgTi2O4
_symmetry_space_group_name_H-M  'Imma'
_cell_length_a       6.03491
_cell_length_b       6.03491
_cell_length_c       5.87247
_cell_angle_alpha    60.8865
_cell_angle_beta     60.8866
_cell_angle_gamma    60.4854

_symmetry_Int_Tables_number  74
_chemical_formula_structural  MgTi2O4
_chemical_formula_sum  Mg2Ti4O8
_cell_volume  153.79675708793786
_cell_formula_units_Z  2
loop_
  _symmetry_equiv_pos_site_id
 _symmetry_equiv_pos_as_xyz
 1  'x, y, z'
loop_
 _atom_site_type_symbol
 _atom_site_label
 _atom_site_symmetry_multiplicity
 _atom_site_fract_x
 _atom_site_fract_y
 _atom_site_fract_z
 _atom_site_fract_occupancy
 Mg  Mg1  1  0.12500  0.62500  0.62500  1
 Mg  Mg2  1  0.62500  0.12500  0.62500  1
 O  O1  1  0.38568  0.38568  0.37307  1
 O  O2  1  0.37335  0.86707  0.37979  1
 O  O3  1  0.38568  0.38568  0.85557  1
 O  O4  1  0.86707  0.37335  0.37979  1
 O  O5  1  0.38293  0.87665  0.87021  1
 O  O6  1  0.87665  0.38293  0.87021  1
 O  O7  1  0.86432  0.86432  0.39443  1
 O  O8  1  0.86432  0.86432  0.87693  1
 Ti  Ti1  1  0.99708  0.99708  0.00292  1
 Ti  Ti2  1  0.25292  0.25292  0.24708  1
 Ti  Ti3  1  0.62500  0.62500  0.12500  1
 Ti  Ti4  1  0.62500  0.62500  0.62500  1
