CIF file written using JARVIS-Tools package.
data_DyB2C2
_symmetry_space_group_name_H-M  'P4_2/mmc'
_cell_length_a       3.79117
_cell_length_b       3.79117
_cell_length_c       7.19278
_cell_angle_alpha    90
_cell_angle_beta     90
_cell_angle_gamma    90

_symmetry_Int_Tables_number  131
_chemical_formula_structural  DyB2C2
_chemical_formula_sum  Dy2B4C4
_cell_volume  103.3818112154635
_cell_formula_units_Z  2
loop_
  _symmetry_equiv_pos_site_id
 _symmetry_equiv_pos_as_xyz
 1  'x, y, z'
loop_
 _atom_site_type_symbol
 _atom_site_label
 _atom_site_symmetry_multiplicity
 _atom_site_fract_x
 _atom_site_fract_y
 _atom_site_fract_z
 _atom_site_fract_occupancy
 B  B1  1  0.78507  0.50000  0.50000  1
 B  B2  1  0.50000  0.78507  0.00000  1
 B  B3  1  0.21493  0.50000  0.50000  1
 B  B4  1  0.50000  0.21493  0.00000  1
 C  C1  1  0.50000  0.81247  0.50000  1
 C  C2  1  0.81247  0.50000  0.00000  1
 C  C3  1  0.18753  0.50000  0.00000  1
 C  C4  1  0.50000  0.18753  0.50000  1
 Dy  Dy1  1  0.00000  0.00000  0.75000  1
 Dy  Dy2  1  0.00000  0.00000  0.25000  1
