CIF file written using JARVIS-Tools package.
data_Mn3O4F2
_symmetry_space_group_name_H-M  'P1'
_cell_length_a       4.58897
_cell_length_b       5.45465
_cell_length_c       7.47444
_cell_angle_alpha    85.0053
_cell_angle_beta     88.3591
_cell_angle_gamma    87.8653

_symmetry_Int_Tables_number  1
_chemical_formula_structural  Mn3O4F2
_chemical_formula_sum  Mn6O8F4
_cell_volume  186.19399230225915
_cell_formula_units_Z  2
loop_
  _symmetry_equiv_pos_site_id
 _symmetry_equiv_pos_as_xyz
 1  'x, y, z'
loop_
 _atom_site_type_symbol
 _atom_site_label
 _atom_site_symmetry_multiplicity
 _atom_site_fract_x
 _atom_site_fract_y
 _atom_site_fract_z
 _atom_site_fract_occupancy
 F  F1  1  0.20690  0.96568  0.24590  1
 F  F2  1  0.79581  0.02155  0.76530  1
 F  F3  1  0.19667  0.64237  0.54921  1
 F  F4  1  0.30060  0.47187  0.23025  1
 Mn  Mn1  1  0.00382  0.00543  0.00423  1
 Mn  Mn2  1  0.50526  0.49680  0.98599  1
 Mn  Mn3  1  0.00978  0.33154  0.67018  1
 Mn  Mn4  1  0.53170  0.16922  0.34422  1
 Mn  Mn5  1  0.49174  0.82932  0.67041  1
 Mn  Mn6  1  0.95575  0.66398  0.32473  1
 O  O1  1  0.18722  0.28853  0.89814  1
 O  O2  1  0.30022  0.78967  0.89824  1
 O  O3  1  0.70018  0.86910  0.43950  1
 O  O4  1  0.69290  0.20886  0.10280  1
 O  O5  1  0.80284  0.70933  0.10406  1
 O  O6  1  0.81299  0.37386  0.43470  1
 O  O7  1  0.69100  0.53150  0.76447  1
 O  O8  1  0.31463  0.13138  0.56766  1
