CIF file written using JARVIS-Tools package.
data_K
_symmetry_space_group_name_H-M  'Cmce'
_cell_length_a       8.0455
_cell_length_b       8.04551
_cell_length_c       9.25043
_cell_angle_alpha    90
_cell_angle_beta     90
_cell_angle_gamma    109.774

_symmetry_Int_Tables_number  64
_chemical_formula_structural  K
_chemical_formula_sum  K8
_cell_volume  563.4758108950481
_cell_formula_units_Z  8
loop_
  _symmetry_equiv_pos_site_id
 _symmetry_equiv_pos_as_xyz
 1  'x, y, z'
loop_
 _atom_site_type_symbol
 _atom_site_label
 _atom_site_symmetry_multiplicity
 _atom_site_fract_x
 _atom_site_fract_y
 _atom_site_fract_z
 _atom_site_fract_occupancy
 K  K1  1  0.24983  0.75017  0.00000  1
 K  K2  1  0.25017  0.74983  0.50000  1
 K  K3  1  0.74962  0.74962  0.25044  1
 K  K4  1  0.74983  0.25017  0.50000  1
 K  K5  1  0.24962  0.24962  0.24956  1
 K  K6  1  0.75038  0.75038  0.75044  1
 K  K7  1  0.75017  0.24983  0.00000  1
 K  K8  1  0.25038  0.25038  0.74956  1
