CIF file written using JARVIS-Tools package.
data_CoO2
_symmetry_space_group_name_H-M  'P-3m1'
_cell_length_a       2.81728
_cell_length_b       9.69665
_cell_length_c       2.8174
_cell_angle_alpha    64.3429
_cell_angle_beta     59.9761
_cell_angle_gamma    64.3516

_symmetry_Int_Tables_number  164
_chemical_formula_structural  CoO2
_chemical_formula_sum  Co2O4
_cell_volume  57.71723137397283
_cell_formula_units_Z  2
loop_
  _symmetry_equiv_pos_site_id
 _symmetry_equiv_pos_as_xyz
 1  'x, y, z'
loop_
 _atom_site_type_symbol
 _atom_site_label
 _atom_site_symmetry_multiplicity
 _atom_site_fract_x
 _atom_site_fract_y
 _atom_site_fract_z
 _atom_site_fract_occupancy
 Co  Co1  1  0.49998  0.50001  0.49994  1
 Co  Co2  1  0.00002  -0.00001  0.00006  1
 O  O1  1  0.77694  0.88900  0.77707  1
 O  O2  1  0.27690  0.38900  0.27697  1
 O  O3  1  0.72307  0.61101  0.72292  1
 O  O4  1  0.22310  0.11100  0.22304  1
