CIF file written using JARVIS-Tools package.
data_LiCoSiO4
_symmetry_space_group_name_H-M  'Pna2_1'
_cell_length_a       5.014
_cell_length_b       6.3329
_cell_length_c       10.6866
_cell_angle_alpha    90
_cell_angle_beta     90
_cell_angle_gamma    90

_symmetry_Int_Tables_number  33
_chemical_formula_structural  LiCoSiO4
_chemical_formula_sum  Li4Co4Si4O6
_cell_volume  339.3327143555738
_cell_formula_units_Z  4
loop_
  _symmetry_equiv_pos_site_id
 _symmetry_equiv_pos_as_xyz
 1  'x, y, z'
loop_
 _atom_site_type_symbol
 _atom_site_label
 _atom_site_symmetry_multiplicity
 _atom_site_fract_x
 _atom_site_fract_y
 _atom_site_fract_z
 _atom_site_fract_occupancy
 Co  Co1  1  0.25887  0.22679  0.58598  1
 Co  Co2  1  0.25887  0.27321  0.08598  1
 Co  Co3  1  0.75887  0.72679  0.91402  1
 Co  Co4  1  0.75887  0.77321  0.41402  1
 Li  Li1  1  0.75920  0.01429  0.16028  1
 Li  Li2  1  0.75920  0.48571  0.66028  1
 Li  Li3  1  0.25920  0.51429  0.33972  1
 Li  Li4  1  0.25920  0.98571  0.83972  1
 O  O1  1  0.59039  0.98814  0.32420  1
 O  O2  1  0.63022  0.29983  0.11071  1
 O  O3  1  0.19701  0.27133  0.91456  1
 O  O4  1  0.14731  0.04679  0.18543  1
 O  O5  1  0.63022  0.20017  0.61071  1
 O  O6  1  0.09039  0.01186  0.67580  1
 O  O7  1  0.14731  0.45321  0.68543  1
 O  O8  1  0.19701  0.22867  0.41456  1
 O  O9  1  0.64731  0.54679  0.31457  1
 O  O10  1  0.69701  0.77133  0.58544  1
 O  O11  1  0.13022  0.70017  0.88929  1
 O  O12  1  0.69701  0.72867  0.08544  1
 O  O13  1  0.59039  0.51186  0.82420  1
 O  O14  1  0.13022  0.79983  0.38929  1
 O  O15  1  0.09039  0.48814  0.17580  1
 O  O16  1  0.64731  0.95321  0.81457  1
 Si  Si1  1  0.26335  0.01595  0.32917  1
 Si  Si2  1  0.26335  0.48405  0.82917  1
 Si  Si3  1  0.76335  0.51595  0.17083  1
 Si  Si4  1  0.76335  0.98405  0.67083  1
