CIF file written using JARVIS-Tools package.
data_Rb4CdBr6
_symmetry_space_group_name_H-M  'R-3c'
_cell_length_a       9.24039
_cell_length_b       9.24039
_cell_length_c       9.24039
_cell_angle_alpha    89.1563
_cell_angle_beta     89.1562
_cell_angle_gamma    89.1563

_symmetry_Int_Tables_number  167
_chemical_formula_structural  Rb4CdBr6
_chemical_formula_sum  Rb8Cd2Br2
_cell_volume  788.7345696997717
_cell_formula_units_Z  2
loop_
  _symmetry_equiv_pos_site_id
 _symmetry_equiv_pos_as_xyz
 1  'x, y, z'
loop_
 _atom_site_type_symbol
 _atom_site_label
 _atom_site_symmetry_multiplicity
 _atom_site_fract_x
 _atom_site_fract_y
 _atom_site_fract_z
 _atom_site_fract_occupancy
 Br  Br1  1  0.70683  0.93085  0.05980  1
 Br  Br2  1  0.20683  0.55980  0.43085  1
 Br  Br3  1  0.55980  0.43085  0.20683  1
 Br  Br4  1  0.94020  0.29317  0.06915  1
 Br  Br5  1  0.29317  0.06915  0.94020  1
 Br  Br6  1  0.06915  0.94020  0.29317  1
 Br  Br7  1  0.56915  0.79317  0.44020  1
 Br  Br8  1  0.79317  0.44020  0.56915  1
 Br  Br9  1  0.44020  0.56915  0.79317  1
 Br  Br10  1  0.43085  0.20683  0.55980  1
 Br  Br11  1  0.93085  0.05980  0.70683  1
 Br  Br12  1  0.05980  0.70683  0.93085  1
 Cd  Cd1  1  0.50000  0.50000  0.50000  1
 Cd  Cd2  1  0.00000  0.00000  0.00000  1
 Rb  Rb1  1  0.37121  0.75000  0.12879  1
 Rb  Rb2  1  0.75000  0.12879  0.37121  1
 Rb  Rb3  1  0.12879  0.37121  0.75000  1
 Rb  Rb4  1  0.62879  0.25000  0.87121  1
 Rb  Rb5  1  0.25000  0.87121  0.62879  1
 Rb  Rb6  1  0.87121  0.62879  0.25000  1
 Rb  Rb7  1  0.75000  0.75000  0.75000  1
 Rb  Rb8  1  0.25000  0.25000  0.25000  1
