CIF file written using JARVIS-Tools package.
data_Ca2Ga7Au
_symmetry_space_group_name_H-M  'P4mm'
_cell_length_a       4.25548
_cell_length_b       4.25548
_cell_length_c       11.2553
_cell_angle_alpha    90
_cell_angle_beta     90
_cell_angle_gamma    90

_symmetry_Int_Tables_number  99
_chemical_formula_structural  Ca2Ga7Au
_chemical_formula_sum  Ca2Ga7Au
_cell_volume  203.82388908605375
_cell_formula_units_Z  1
loop_
  _symmetry_equiv_pos_site_id
 _symmetry_equiv_pos_as_xyz
 1  'x, y, z'
loop_
 _atom_site_type_symbol
 _atom_site_label
 _atom_site_symmetry_multiplicity
 _atom_site_fract_x
 _atom_site_fract_y
 _atom_site_fract_z
 _atom_site_fract_occupancy
 Au  Au1  1  0.50000  0.50000  0.10999  1
 Ca  Ca1  1  0.00000  0.00000  0.00232  1
 Ca  Ca2  1  0.50000  0.50000  0.49969  1
 Ga  Ga1  1  0.00000  0.50000  0.25240  1
 Ga  Ga2  1  0.50000  0.00000  0.74788  1
 Ga  Ga3  1  0.50000  0.00000  0.25240  1
 Ga  Ga4  1  0.00000  0.50000  0.74788  1
 Ga  Ga5  1  0.00000  0.00000  0.61086  1
 Ga  Ga6  1  0.00000  0.00000  0.39057  1
 Ga  Ga7  1  0.50000  0.50000  0.88601  1
