CIF file written using JARVIS-Tools package.
data_Ba5Ta2Cl2O9
_symmetry_space_group_name_H-M  'P6_3/mmc'
_cell_length_a       5.99697
_cell_length_b       5.99697
_cell_length_c       25.0863
_cell_angle_alpha    90
_cell_angle_beta     90
_cell_angle_gamma    120

_symmetry_Int_Tables_number  194
_chemical_formula_structural  Ba5Ta2Cl2O9
_chemical_formula_sum  Ba0Ta4Cl4O8
_cell_volume  781.3241495171742
_cell_formula_units_Z  2
loop_
  _symmetry_equiv_pos_site_id
 _symmetry_equiv_pos_as_xyz
 1  'x, y, z'
loop_
 _atom_site_type_symbol
 _atom_site_label
 _atom_site_symmetry_multiplicity
 _atom_site_fract_x
 _atom_site_fract_y
 _atom_site_fract_z
 _atom_site_fract_occupancy
 Ba  Ba1  1  0.33333  0.66667  0.58103  1
 Ba  Ba2  1  0.33333  0.66667  0.91897  1
 Ba  Ba3  1  0.33333  0.66667  0.17205  1
 Ba  Ba4  1  0.66667  0.33333  0.41897  1
 Ba  Ba5  1  0.66667  0.33333  0.08103  1
 Ba  Ba6  1  0.66667  0.33333  0.67205  1
 Ba  Ba7  1  0.66667  0.33333  0.82795  1
 Ba  Ba8  1  0.33333  0.66667  0.75000  1
 Ba  Ba9  1  0.66667  0.33333  0.25000  1
 Ba  Ba10  1  0.33333  0.66667  0.32795  1
 Cl  Cl1  1  0.33333  0.66667  0.45276  1
 Cl  Cl2  1  0.66667  0.33333  0.54724  1
 Cl  Cl3  1  0.66667  0.33333  0.95276  1
 Cl  Cl4  1  0.33333  0.66667  0.04724  1
 O  O1  1  0.85149  0.14851  0.75000  1
 O  O2  1  0.14851  0.29702  0.25000  1
 O  O3  1  0.16314  0.83686  0.84474  1
 O  O4  1  0.70298  0.85149  0.25000  1
 O  O5  1  0.83686  0.16314  0.34474  1
 O  O6  1  0.85149  0.70298  0.75000  1
 O  O7  1  0.16314  0.32628  0.65526  1
 O  O8  1  0.16314  0.32628  0.84474  1
 O  O9  1  0.32628  0.16314  0.34474  1
 O  O10  1  0.83686  0.67372  0.15526  1
 O  O11  1  0.67372  0.83686  0.65526  1
 O  O12  1  0.29702  0.14851  0.75000  1
 O  O13  1  0.32628  0.16314  0.15526  1
 O  O14  1  0.14851  0.85149  0.25000  1
 O  O15  1  0.83686  0.16314  0.15526  1
 O  O16  1  0.16314  0.83686  0.65526  1
 O  O17  1  0.67372  0.83686  0.84474  1
 O  O18  1  0.83686  0.67372  0.34474  1
 Ta  Ta1  1  0.00000  0.00000  0.18968  1
 Ta  Ta2  1  0.00000  0.00000  0.68968  1
 Ta  Ta3  1  0.00000  0.00000  0.31032  1
 Ta  Ta4  1  0.00000  0.00000  0.81032  1
