CIF file written using JARVIS-Tools package.
data_B2C3N6
_symmetry_space_group_name_H-M  'C2/m'
_cell_length_a       2.69488
_cell_length_b       8.87572
_cell_length_c       6.09739
_cell_angle_alpha    123.278
_cell_angle_beta     90
_cell_angle_gamma    98.7319

_symmetry_Int_Tables_number  12
_chemical_formula_structural  B2C3N6
_chemical_formula_sum  B2C3N6
_cell_volume  119.9008849458621
_cell_formula_units_Z  1
loop_
  _symmetry_equiv_pos_site_id
 _symmetry_equiv_pos_as_xyz
 1  'x, y, z'
loop_
 _atom_site_type_symbol
 _atom_site_label
 _atom_site_symmetry_multiplicity
 _atom_site_fract_x
 _atom_site_fract_y
 _atom_site_fract_z
 _atom_site_fract_occupancy
 B  B1  1  0.09411  0.18822  0.01151  1
 B  B2  1  0.90589  0.81178  -0.01151  1
 C  C1  1  0.34258  0.68517  0.58798  1
 C  C2  1  0.65742  0.31483  0.41202  1
 C  C3  1  0.00000  -0.00000  0.50000  1
 N  N1  1  0.61573  0.23146  0.14793  1
 N  N2  1  0.95928  0.91856  0.26355  1
 N  N3  1  0.04072  0.08144  0.73645  1
 N  N4  1  0.30867  0.61734  0.36079  1
 N  N5  1  0.38427  0.76854  0.85207  1
 N  N6  1  0.69133  0.38266  0.63921  1
