CIF file written using JARVIS-Tools package.
data_BaP2Ir2
_symmetry_space_group_name_H-M  'I4/mmm'
_cell_length_a       3.99975
_cell_length_b       3.99975
_cell_length_c       6.962
_cell_angle_alpha    106.694
_cell_angle_beta     106.694
_cell_angle_gamma    89.9999

_symmetry_Int_Tables_number  139
_chemical_formula_structural  BaP2Ir2
_chemical_formula_sum  BaP2Ir2
_cell_volume  101.77374316235071
_cell_formula_units_Z  1
loop_
  _symmetry_equiv_pos_site_id
 _symmetry_equiv_pos_as_xyz
 1  'x, y, z'
loop_
 _atom_site_type_symbol
 _atom_site_label
 _atom_site_symmetry_multiplicity
 _atom_site_fract_x
 _atom_site_fract_y
 _atom_site_fract_z
 _atom_site_fract_occupancy
 Ba  Ba1  1  0.00000  0.00000  0.00000  1
 Ir  Ir1  1  0.75000  0.25000  0.50000  1
 Ir  Ir2  1  0.25000  0.75000  0.50000  1
 P  P1  1  0.64738  0.64738  0.29476  1
 P  P2  1  0.35262  0.35262  0.70524  1
