CIF file written using JARVIS-Tools package.
data_Li
_symmetry_space_group_name_H-M  'I-43d'
_cell_length_a       5.9037
_cell_length_b       5.9037
_cell_length_c       5.9037
_cell_angle_alpha    109.471
_cell_angle_beta     109.471
_cell_angle_gamma    109.471

_symmetry_Int_Tables_number  220
_chemical_formula_structural  Li
_chemical_formula_sum  Li8
_cell_volume  158.3983378991257
_cell_formula_units_Z  8
loop_
  _symmetry_equiv_pos_site_id
 _symmetry_equiv_pos_as_xyz
 1  'x, y, z'
loop_
 _atom_site_type_symbol
 _atom_site_label
 _atom_site_symmetry_multiplicity
 _atom_site_fract_x
 _atom_site_fract_y
 _atom_site_fract_z
 _atom_site_fract_occupancy
 Li  Li1  1  0.50153  0.50000  -0.00000  1
 Li  Li2  1  0.00000  0.50153  0.50000  1
 Li  Li3  1  0.50000  -0.00000  0.00153  1
 Li  Li4  1  0.00000  0.00153  0.50000  1
 Li  Li5  1  0.00153  0.50000  -0.00000  1
 Li  Li6  1  0.50000  -0.00000  0.50153  1
 Li  Li7  1  -0.00153  -0.00153  -0.00153  1
 Li  Li8  1  0.49847  0.49847  0.49847  1
