CIF file written using JARVIS-Tools package.
data_ErFe4Ge2
_symmetry_space_group_name_H-M  'P4_2/mnm'
_cell_length_a       7.1886
_cell_length_b       7.1886
_cell_length_c       3.78201
_cell_angle_alpha    90
_cell_angle_beta     90
_cell_angle_gamma    90

_symmetry_Int_Tables_number  136
_chemical_formula_structural  ErFe4Ge2
_chemical_formula_sum  Er2Fe8Ge4
_cell_volume  195.4391921182925
_cell_formula_units_Z  2
loop_
  _symmetry_equiv_pos_site_id
 _symmetry_equiv_pos_as_xyz
 1  'x, y, z'
loop_
 _atom_site_type_symbol
 _atom_site_label
 _atom_site_symmetry_multiplicity
 _atom_site_fract_x
 _atom_site_fract_y
 _atom_site_fract_z
 _atom_site_fract_occupancy
 Er  Er1  1  0.50000  0.50000  0.00000  1
 Er  Er2  1  0.00000  0.00000  0.50000  1
 Fe  Fe1  1  0.85930  0.41614  0.50000  1
 Fe  Fe2  1  0.91614  0.64070  0.00000  1
 Fe  Fe3  1  0.35930  0.08386  0.00000  1
 Fe  Fe4  1  0.58386  0.14070  0.50000  1
 Fe  Fe5  1  0.41614  0.85930  0.50000  1
 Fe  Fe6  1  0.08386  0.35930  0.00000  1
 Fe  Fe7  1  0.14070  0.58386  0.50000  1
 Fe  Fe8  1  0.64070  0.91614  0.00000  1
 Ge  Ge1  1  0.71782  0.71782  0.50000  1
 Ge  Ge2  1  0.28218  0.28218  0.50000  1
 Ge  Ge3  1  0.78218  0.21782  0.00000  1
 Ge  Ge4  1  0.21782  0.78218  0.00000  1
