CIF file written using JARVIS-Tools package.
data_KTi5Se8
_symmetry_space_group_name_H-M  'C2/m'
_cell_length_a       3.60236
_cell_length_b       9.14061
_cell_length_c       9.60001
_cell_angle_alpha    104.192
_cell_angle_beta     100.814
_cell_angle_gamma    90

_symmetry_Int_Tables_number  12
_chemical_formula_structural  KTi5Se8
_chemical_formula_sum  KTi5Se8
_cell_volume  300.6649167391568
_cell_formula_units_Z  1
loop_
  _symmetry_equiv_pos_site_id
 _symmetry_equiv_pos_as_xyz
 1  'x, y, z'
loop_
 _atom_site_type_symbol
 _atom_site_label
 _atom_site_symmetry_multiplicity
 _atom_site_fract_x
 _atom_site_fract_y
 _atom_site_fract_z
 _atom_site_fract_occupancy
 K  K1  1  0.50000  0.50000  -0.00000  1
 Se  Se1  1  0.57350  0.17606  0.14701  1
 Se  Se2  1  0.08591  0.81615  0.17183  1
 Se  Se3  1  0.16078  0.50010  0.32156  1
 Se  Se4  1  0.24168  0.16212  0.48336  1
 Se  Se5  1  0.75832  0.83788  0.51664  1
 Se  Se6  1  0.83922  0.49990  0.67844  1
 Se  Se7  1  0.91408  0.18385  0.82817  1
 Se  Se8  1  0.42650  0.82394  0.85299  1
 Ti  Ti1  1  0.00000  0.00000  0.00000  1
 Ti  Ti2  1  0.65348  0.99490  0.30696  1
 Ti  Ti3  1  0.70835  0.34898  0.41670  1
 Ti  Ti4  1  0.29165  0.65102  0.58330  1
 Ti  Ti5  1  0.34652  0.00510  0.69304  1
