CIF file written using JARVIS-Tools package.
data_NaIO2F2
_symmetry_space_group_name_H-M  'Cmcm'
_cell_length_a       5.09283
_cell_length_b       5.09283
_cell_length_c       7.27417
_cell_angle_alpha    90
_cell_angle_beta     90
_cell_angle_gamma    92.1271

_symmetry_Int_Tables_number  63
_chemical_formula_structural  NaIO2F2
_chemical_formula_sum  Na2I2O4F4
_cell_volume  188.53967308733598
_cell_formula_units_Z  2
loop_
  _symmetry_equiv_pos_site_id
 _symmetry_equiv_pos_as_xyz
 1  'x, y, z'
loop_
 _atom_site_type_symbol
 _atom_site_label
 _atom_site_symmetry_multiplicity
 _atom_site_fract_x
 _atom_site_fract_y
 _atom_site_fract_z
 _atom_site_fract_occupancy
 F  F1  1  0.82579  0.76141  0.75000  1
 F  F2  1  0.23859  0.17421  0.75000  1
 F  F3  1  0.76141  0.82579  0.25000  1
 F  F4  1  0.17421  0.23859  0.25000  1
 I  I1  1  0.46584  0.53416  0.25000  1
 I  I2  1  0.53416  0.46584  0.75000  1
 Na  Na1  1  0.00000  0.00000  0.50000  1
 Na  Na2  1  0.00000  0.00000  0.00000  1
 O  O1  1  0.31146  0.68854  0.44272  1
 O  O2  1  0.31146  0.68854  0.05728  1
 O  O3  1  0.68854  0.31146  0.55728  1
 O  O4  1  0.68854  0.31146  0.94272  1
