CIF file written using JARVIS-Tools package.
data_Er3In4Co2
_symmetry_space_group_name_H-M  'P-6'
_cell_length_a       7.80542
_cell_length_b       7.80542
_cell_length_c       3.60075
_cell_angle_alpha    90
_cell_angle_beta     90
_cell_angle_gamma    120

_symmetry_Int_Tables_number  174
_chemical_formula_structural  Er3In4Co2
_chemical_formula_sum  Er3In4Co2
_cell_volume  189.98347074353148
_cell_formula_units_Z  1
loop_
  _symmetry_equiv_pos_site_id
 _symmetry_equiv_pos_as_xyz
 1  'x, y, z'
loop_
 _atom_site_type_symbol
 _atom_site_label
 _atom_site_symmetry_multiplicity
 _atom_site_fract_x
 _atom_site_fract_y
 _atom_site_fract_z
 _atom_site_fract_occupancy
 Co  Co1  1  0.66667  0.33333  0.50000  1
 Co  Co2  1  0.00000  0.00000  0.00000  1
 Er  Er1  1  0.71017  0.95476  0.50000  1
 Er  Er2  1  0.24459  0.28983  0.50000  1
 Er  Er3  1  0.04524  0.75541  0.50000  1
 In  In1  1  0.92080  0.33564  0.00000  1
 In  In2  1  0.41484  0.07920  0.00000  1
 In  In3  1  0.66436  0.58516  0.00000  1
 In  In4  1  0.33333  0.66667  0.00000  1
