CIF file written using JARVIS-Tools package.
data_GaI3O9
_symmetry_space_group_name_H-M  'P6_3'
_cell_length_a       9.13968
_cell_length_b       9.13968
_cell_length_c       5.24452
_cell_angle_alpha    90
_cell_angle_beta     90
_cell_angle_gamma    120

_symmetry_Int_Tables_number  173
_chemical_formula_structural  GaI3O9
_chemical_formula_sum  Ga2I6O8
_cell_volume  379.4004451433221
_cell_formula_units_Z  2
loop_
  _symmetry_equiv_pos_site_id
 _symmetry_equiv_pos_as_xyz
 1  'x, y, z'
loop_
 _atom_site_type_symbol
 _atom_site_label
 _atom_site_symmetry_multiplicity
 _atom_site_fract_x
 _atom_site_fract_y
 _atom_site_fract_z
 _atom_site_fract_occupancy
 Ga  Ga1  1  0.66667  0.33333  0.60779  1
 Ga  Ga2  1  0.33333  0.66667  0.10779  1
 I  I1  1  0.68649  0.02301  0.23845  1
 I  I2  1  0.31351  0.97699  0.73845  1
 I  I3  1  0.02301  0.33652  0.73845  1
 I  I4  1  0.33652  0.31351  0.23845  1
 I  I5  1  0.66348  0.68649  0.73845  1
 I  I6  1  0.97699  0.66348  0.23845  1
 O  O1  1  0.83322  0.05407  0.49248  1
 O  O2  1  0.57200  0.12428  0.39387  1
 O  O3  1  0.87572  0.44772  0.39387  1
 O  O4  1  0.77915  0.83322  0.99248  1
 O  O5  1  0.16678  0.94593  0.99248  1
 O  O6  1  0.05407  0.22085  0.99248  1
 O  O7  1  0.71766  0.52472  0.84085  1
 O  O8  1  0.22085  0.16678  0.49248  1
 O  O9  1  0.12428  0.55228  0.89387  1
 O  O10  1  0.94593  0.77915  0.49248  1
 O  O11  1  0.42800  0.87572  0.89387  1
 O  O12  1  0.55228  0.42800  0.39387  1
 O  O13  1  0.28234  0.47528  0.34085  1
 O  O14  1  0.52472  0.80706  0.34085  1
 O  O15  1  0.44772  0.57200  0.89387  1
 O  O16  1  0.80706  0.28234  0.84085  1
 O  O17  1  0.47528  0.19294  0.84085  1
 O  O18  1  0.19294  0.71766  0.34085  1
