CIF file written using JARVIS-Tools package.
data_Ti2ZnO4
_symmetry_space_group_name_H-M  'Imma'
_cell_length_a       5.9225
_cell_length_b       5.97532
_cell_length_c       5.97529
_cell_angle_alpha    88.9327
_cell_angle_beta     119.71
_cell_angle_gamma    119.708

_symmetry_Int_Tables_number  74
_chemical_formula_structural  Ti2ZnO4
_chemical_formula_sum  Ti4Zn2O8
_cell_volume  152.12926293276453
_cell_formula_units_Z  2
loop_
  _symmetry_equiv_pos_site_id
 _symmetry_equiv_pos_as_xyz
 1  'x, y, z'
loop_
 _atom_site_type_symbol
 _atom_site_label
 _atom_site_symmetry_multiplicity
 _atom_site_fract_x
 _atom_site_fract_y
 _atom_site_fract_z
 _atom_site_fract_occupancy
 O  O1  1  0.02678  0.25399  0.74601  1
 O  O2  1  0.00413  0.24730  0.26097  1
 O  O3  1  0.47322  0.25399  0.74601  1
 O  O4  1  0.50411  0.26095  0.24729  1
 O  O5  1  0.52678  0.74601  0.25399  1
 O  O6  1  0.99587  0.75270  0.73903  1
 O  O7  1  0.49589  0.73905  0.75271  1
 O  O8  1  0.97322  0.74601  0.25399  1
 Ti  Ti1  1  -0.00000  0.00000  0.50000  1
 Ti  Ti2  1  0.50000  0.50000  0.50000  1
 Ti  Ti3  1  0.50000  0.50000  0.00000  1
 Ti  Ti4  1  -0.00000  0.50000  0.50000  1
 Zn  Zn1  1  0.00000  0.00000  0.00000  1
 Zn  Zn2  1  0.50000  -0.00000  0.00000  1
