CIF file written using JARVIS-Tools package.
data_TmH3C3O6
_symmetry_space_group_name_H-M  'R3m'
_cell_length_a       6.09927
_cell_length_b       6.09927
_cell_length_c       6.09928
_cell_angle_alpha    115.573
_cell_angle_beta     115.573
_cell_angle_gamma    115.573

_symmetry_Int_Tables_number  160
_chemical_formula_structural  TmH3C3O6
_chemical_formula_sum  TmH3C3O6
_cell_volume  120.09927959454008
_cell_formula_units_Z  1
loop_
  _symmetry_equiv_pos_site_id
 _symmetry_equiv_pos_as_xyz
 1  'x, y, z'
loop_
 _atom_site_type_symbol
 _atom_site_label
 _atom_site_symmetry_multiplicity
 _atom_site_fract_x
 _atom_site_fract_y
 _atom_site_fract_z
 _atom_site_fract_occupancy
 C  C1  1  0.14498  0.60716  0.60716  1
 C  C2  1  0.60716  0.60716  0.14498  1
 C  C3  1  0.60716  0.14498  0.60716  1
 H  H1  1  0.83907  0.35506  0.35506  1
 H  H2  1  0.35506  0.35506  0.83907  1
 H  H3  1  0.35506  0.83907  0.35506  1
 O  O1  1  0.27866  0.88857  0.88857  1
 O  O2  1  0.88857  0.88857  0.27866  1
 O  O3  1  0.88857  0.27866  0.88857  1
 O  O4  1  0.34160  0.59266  0.59266  1
 O  O5  1  0.59266  0.59266  0.34160  1
 O  O6  1  0.59266  0.34160  0.59266  1
 Tm  Tm1  1  0.00177  0.00177  0.00177  1
