CIF file written using JARVIS-Tools package.
data_HgINO3
_symmetry_space_group_name_H-M  'Pnma'
_cell_length_a       5.3922
_cell_length_b       7.53744
_cell_length_c       12.0354
_cell_angle_alpha    90
_cell_angle_beta     90
_cell_angle_gamma    90

_symmetry_Int_Tables_number  62
_chemical_formula_structural  HgINO3
_chemical_formula_sum  Hg4I4N4O2
_cell_volume  489.1605188352785
_cell_formula_units_Z  4
loop_
  _symmetry_equiv_pos_site_id
 _symmetry_equiv_pos_as_xyz
 1  'x, y, z'
loop_
 _atom_site_type_symbol
 _atom_site_label
 _atom_site_symmetry_multiplicity
 _atom_site_fract_x
 _atom_site_fract_y
 _atom_site_fract_z
 _atom_site_fract_occupancy
 Hg  Hg1  1  0.75000  0.59710  0.27193  1
 Hg  Hg2  1  0.25000  0.90290  0.77193  1
 Hg  Hg3  1  0.25000  0.40290  0.72807  1
 Hg  Hg4  1  0.75000  0.09710  0.22807  1
 I  I1  1  0.75000  0.88263  0.40893  1
 I  I2  1  0.25000  0.61737  0.90893  1
 I  I3  1  0.75000  0.38263  0.09107  1
 I  I4  1  0.25000  0.11737  0.59107  1
 N  N1  1  0.25000  0.44189  0.35503  1
 N  N2  1  0.25000  0.94189  0.14497  1
 N  N3  1  0.75000  0.05811  0.85503  1
 N  N4  1  0.75000  0.55811  0.64497  1
 O  O1  1  0.04538  0.37742  0.38759  1
 O  O2  1  0.75000  0.92594  0.78817  1
 O  O3  1  0.45462  0.37742  0.38759  1
 O  O4  1  0.95462  0.62258  0.61241  1
 O  O5  1  0.54538  0.12258  0.88759  1
 O  O6  1  0.75000  0.42594  0.71183  1
 O  O7  1  0.04538  0.87742  0.11241  1
 O  O8  1  0.54538  0.62258  0.61241  1
 O  O9  1  0.95462  0.12258  0.88759  1
 O  O10  1  0.25000  0.07406  0.21183  1
 O  O11  1  0.45462  0.87742  0.11241  1
 O  O12  1  0.25000  0.57406  0.28817  1
