CIF file written using JARVIS-Tools package.
data_Sn2Pd2Au
_symmetry_space_group_name_H-M  'P3m1'
_cell_length_a       4.51389
_cell_length_b       4.5139
_cell_length_c       5.72355
_cell_angle_alpha    90
_cell_angle_beta     90
_cell_angle_gamma    120

_symmetry_Int_Tables_number  156
_chemical_formula_structural  Sn2Pd2Au
_chemical_formula_sum  Sn2Pd2Au
_cell_volume  100.99466222325853
_cell_formula_units_Z  1
loop_
  _symmetry_equiv_pos_site_id
 _symmetry_equiv_pos_as_xyz
 1  'x, y, z'
loop_
 _atom_site_type_symbol
 _atom_site_label
 _atom_site_symmetry_multiplicity
 _atom_site_fract_x
 _atom_site_fract_y
 _atom_site_fract_z
 _atom_site_fract_occupancy
 Au  Au1  1  0.33333  0.66667  0.02067  1
 Pd  Pd1  1  0.66667  0.33333  0.77621  1
 Pd  Pd2  1  0.33333  0.66667  0.50703  1
 Sn  Sn1  1  0.66667  0.33333  0.26228  1
 Sn  Sn2  1  0.00000  0.00000  0.68381  1
