CIF file written using JARVIS-Tools package.
data_YbMo6S8
_symmetry_space_group_name_H-M  'R-3'
_cell_length_a       6.51751
_cell_length_b       6.51751
_cell_length_c       6.51751
_cell_angle_alpha    89.2488
_cell_angle_beta     89.2489
_cell_angle_gamma    89.2488

_symmetry_Int_Tables_number  148
_chemical_formula_structural  YbMo6S8
_chemical_formula_sum  YbMo6S8
_cell_volume  276.7797853904903
_cell_formula_units_Z  1
loop_
  _symmetry_equiv_pos_site_id
 _symmetry_equiv_pos_as_xyz
 1  'x, y, z'
loop_
 _atom_site_type_symbol
 _atom_site_label
 _atom_site_symmetry_multiplicity
 _atom_site_fract_x
 _atom_site_fract_y
 _atom_site_fract_z
 _atom_site_fract_occupancy
 Mo  Mo1  1  0.22485  0.41887  0.56025  1
 Mo  Mo2  1  0.58113  0.43975  0.77515  1
 Mo  Mo3  1  0.43975  0.77515  0.58113  1
 Mo  Mo4  1  0.56025  0.22485  0.41887  1
 Mo  Mo5  1  0.41887  0.56025  0.22485  1
 Mo  Mo6  1  0.77515  0.58113  0.43975  1
 S  S1  1  0.76110  0.76110  0.76110  1
 S  S2  1  0.87382  0.25062  0.62521  1
 S  S3  1  0.25062  0.62521  0.87382  1
 S  S4  1  0.62521  0.87382  0.25062  1
 S  S5  1  0.12618  0.74938  0.37479  1
 S  S6  1  0.74938  0.37479  0.12618  1
 S  S7  1  0.23890  0.23890  0.23890  1
 S  S8  1  0.37479  0.12618  0.74938  1
 Yb  Yb1  1  0.00000  0.00000  0.00000  1
