CIF file written using JARVIS-Tools package.
data_LiAsF6
_symmetry_space_group_name_H-M  'R-3'
_cell_length_a       5.24554
_cell_length_b       5.24554
_cell_length_c       5.24554
_cell_angle_alpha    55.8817
_cell_angle_beta     55.8817
_cell_angle_gamma    55.8816

_symmetry_Int_Tables_number  148
_chemical_formula_structural  LiAsF6
_chemical_formula_sum  LiAsF6
_cell_volume  92.3172129465775
_cell_formula_units_Z  1
loop_
  _symmetry_equiv_pos_site_id
 _symmetry_equiv_pos_as_xyz
 1  'x, y, z'
loop_
 _atom_site_type_symbol
 _atom_site_label
 _atom_site_symmetry_multiplicity
 _atom_site_fract_x
 _atom_site_fract_y
 _atom_site_fract_z
 _atom_site_fract_occupancy
 As  As1  1  0.00000  0.00000  0.00000  1
 F  F1  1  0.35698  0.77063  0.10468  1
 F  F2  1  0.10468  0.35698  0.77063  1
 F  F3  1  0.77063  0.10468  0.35698  1
 F  F4  1  0.89532  0.64302  0.22937  1
 F  F5  1  0.22937  0.89532  0.64302  1
 F  F6  1  0.64302  0.22937  0.89532  1
 Li  Li1  1  0.50000  0.50000  0.50000  1
