CIF file written using JARVIS-Tools package.
data_Y3Ge4
_symmetry_space_group_name_H-M  'Cmcm'
_cell_length_a       4.07972
_cell_length_b       5.71904
_cell_length_c       14.3354
_cell_angle_alpha    90
_cell_angle_beta     90
_cell_angle_gamma    110.896

_symmetry_Int_Tables_number  63
_chemical_formula_structural  Y3Ge4
_chemical_formula_sum  Y6Ge8
_cell_volume  312.47553207463295
_cell_formula_units_Z  2
loop_
  _symmetry_equiv_pos_site_id
 _symmetry_equiv_pos_as_xyz
 1  'x, y, z'
loop_
 _atom_site_type_symbol
 _atom_site_label
 _atom_site_symmetry_multiplicity
 _atom_site_fract_x
 _atom_site_fract_y
 _atom_site_fract_z
 _atom_site_fract_occupancy
 Ge  Ge1  1  0.22268  0.44537  0.25000  1
 Ge  Ge2  1  0.77732  0.55463  0.75000  1
 Ge  Ge3  1  0.00000  0.00000  0.50000  1
 Ge  Ge4  1  0.00000  0.00000  0.00000  1
 Ge  Ge5  1  0.37879  0.75758  0.39074  1
 Ge  Ge6  1  0.62121  0.24242  0.60926  1
 Ge  Ge7  1  0.37879  0.75758  0.10926  1
 Ge  Ge8  1  0.62121  0.24242  0.89074  1
 Y  Y1  1  0.95171  0.90343  0.25000  1
 Y  Y2  1  0.04829  0.09657  0.75000  1
 Y  Y3  1  0.33142  0.66284  0.59649  1
 Y  Y4  1  0.66858  0.33716  0.40351  1
 Y  Y5  1  0.66858  0.33716  0.09649  1
 Y  Y6  1  0.33142  0.66284  0.90351  1
