CIF file written using JARVIS-Tools package.
data_MnBe2
_symmetry_space_group_name_H-M  'P6_3/mmc'
_cell_length_a       4.1474
_cell_length_b       4.1474
_cell_length_c       6.7525
_cell_angle_alpha    90
_cell_angle_beta     90
_cell_angle_gamma    120

_symmetry_Int_Tables_number  194
_chemical_formula_structural  MnBe2
_chemical_formula_sum  Mn4Be8
_cell_volume  100.58800033229386
_cell_formula_units_Z  4
loop_
  _symmetry_equiv_pos_site_id
 _symmetry_equiv_pos_as_xyz
 1  'x, y, z'
loop_
 _atom_site_type_symbol
 _atom_site_label
 _atom_site_symmetry_multiplicity
 _atom_site_fract_x
 _atom_site_fract_y
 _atom_site_fract_z
 _atom_site_fract_occupancy
 Be  Be1  1  0.00000  0.00000  0.00000  1
 Be  Be2  1  0.00000  0.00000  0.50000  1
 Be  Be3  1  0.83004  0.66008  0.25000  1
 Be  Be4  1  0.16996  0.83004  0.75000  1
 Be  Be5  1  0.66008  0.83004  0.75000  1
 Be  Be6  1  0.33992  0.16996  0.25000  1
 Be  Be7  1  0.83004  0.16996  0.25000  1
 Be  Be8  1  0.16996  0.33992  0.75000  1
 Mn  Mn1  1  0.33333  0.66667  0.06094  1
 Mn  Mn2  1  0.66667  0.33333  0.56094  1
 Mn  Mn3  1  0.66667  0.33333  0.93906  1
 Mn  Mn4  1  0.33333  0.66667  0.43906  1
