CIF file written using JARVIS-Tools package.
data_YCCl
_symmetry_space_group_name_H-M  'C2/m'
_cell_length_a       3.90961
_cell_length_b       3.90961
_cell_length_c       9.33509
_cell_angle_alpha    85.147
_cell_angle_beta     85.147
_cell_angle_gamma    56.9666

_symmetry_Int_Tables_number  12
_chemical_formula_structural  YCCl
_chemical_formula_sum  Y2C2Cl2
_cell_volume  119.06717085524397
_cell_formula_units_Z  2
loop_
  _symmetry_equiv_pos_site_id
 _symmetry_equiv_pos_as_xyz
 1  'x, y, z'
loop_
 _atom_site_type_symbol
 _atom_site_label
 _atom_site_symmetry_multiplicity
 _atom_site_fract_x
 _atom_site_fract_y
 _atom_site_fract_z
 _atom_site_fract_occupancy
 C  C1  1  0.57320  0.57320  0.04181  1
 C  C2  1  0.42680  0.42680  0.95819  1
 Cl  Cl1  1  0.82331  0.82331  0.65730  1
 Cl  Cl2  1  0.17669  0.17669  0.34270  1
 Y  Y1  1  0.85547  0.85547  0.15984  1
 Y  Y2  1  0.14453  0.14453  0.84016  1
