CIF file written using JARVIS-Tools package.
data_Sm3CuGeS7
_symmetry_space_group_name_H-M  'P6_3'
_cell_length_a       10.0581
_cell_length_b       10.0581
_cell_length_c       5.81732
_cell_angle_alpha    90
_cell_angle_beta     90
_cell_angle_gamma    120

_symmetry_Int_Tables_number  173
_chemical_formula_structural  Sm3CuGeS7
_chemical_formula_sum  Sm6Cu2Ge2S4
_cell_volume  509.6691286699944
_cell_formula_units_Z  2
loop_
  _symmetry_equiv_pos_site_id
 _symmetry_equiv_pos_as_xyz
 1  'x, y, z'
loop_
 _atom_site_type_symbol
 _atom_site_label
 _atom_site_symmetry_multiplicity
 _atom_site_fract_x
 _atom_site_fract_y
 _atom_site_fract_z
 _atom_site_fract_occupancy
 Cu  Cu1  1  0.00000  0.00000  0.70761  1
 Cu  Cu2  1  0.00000  0.00000  0.20761  1
 Ge  Ge1  1  0.66667  0.33333  0.82463  1
 Ge  Ge2  1  0.33333  0.66667  0.32463  1
 S  S1  1  0.48045  0.58037  0.48272  1
 S  S2  1  0.58037  0.09992  0.98272  1
 S  S3  1  0.90008  0.48045  0.98272  1
 S  S4  1  0.09475  0.83785  0.22064  1
 S  S5  1  0.16215  0.25690  0.22064  1
 S  S6  1  0.66667  0.33333  0.44591  1
 S  S7  1  0.33333  0.66667  0.94591  1
 S  S8  1  0.25690  0.09475  0.72064  1
 S  S9  1  0.90525  0.16215  0.72064  1
 S  S10  1  0.09992  0.51955  0.48272  1
 S  S11  1  0.41963  0.90008  0.48272  1
 S  S12  1  0.83785  0.74310  0.72064  1
 S  S13  1  0.51955  0.41963  0.98272  1
 S  S14  1  0.74310  0.90525  0.22064  1
 Sm  Sm1  1  0.77286  0.64286  0.24328  1
 Sm  Sm2  1  0.64286  0.86999  0.74328  1
 Sm  Sm3  1  0.22714  0.35714  0.74328  1
 Sm  Sm4  1  0.86999  0.22714  0.24328  1
 Sm  Sm5  1  0.35714  0.13001  0.24328  1
 Sm  Sm6  1  0.13001  0.77286  0.74328  1
