CIF file written using JARVIS-Tools package.
data_Pr4S3NCl3
_symmetry_space_group_name_H-M  'P6_3mc'
_cell_length_a       9.38434
_cell_length_b       9.38434
_cell_length_c       6.91975
_cell_angle_alpha    90
_cell_angle_beta     90
_cell_angle_gamma    120

_symmetry_Int_Tables_number  186
_chemical_formula_structural  Pr4S3NCl3
_chemical_formula_sum  Pr8S6N2Cl6
_cell_volume  527.7502746177546
_cell_formula_units_Z  2
loop_
  _symmetry_equiv_pos_site_id
 _symmetry_equiv_pos_as_xyz
 1  'x, y, z'
loop_
 _atom_site_type_symbol
 _atom_site_label
 _atom_site_symmetry_multiplicity
 _atom_site_fract_x
 _atom_site_fract_y
 _atom_site_fract_z
 _atom_site_fract_occupancy
 Cl  Cl1  1  0.86947  0.13053  0.63970  1
 Cl  Cl2  1  0.86947  0.73893  0.63970  1
 Cl  Cl3  1  0.73893  0.86947  0.13970  1
 Cl  Cl4  1  0.13053  0.26107  0.13970  1
 Cl  Cl5  1  0.13053  0.86947  0.13970  1
 Cl  Cl6  1  0.26107  0.13053  0.63970  1
 N  N1  1  0.66667  0.33333  0.36786  1
 N  N2  1  0.33333  0.66667  0.86786  1
 Pr  Pr1  1  0.33333  0.66667  0.21175  1
 Pr  Pr2  1  0.79912  0.59823  0.24797  1
 Pr  Pr3  1  0.66667  0.33333  0.71175  1
 Pr  Pr4  1  0.59823  0.79912  0.74797  1
 Pr  Pr5  1  0.20088  0.40177  0.74797  1
 Pr  Pr6  1  0.40177  0.20088  0.24797  1
 Pr  Pr7  1  0.20088  0.79912  0.74797  1
 Pr  Pr8  1  0.79912  0.20088  0.24797  1
 S  S1  1  0.06226  0.53113  0.46831  1
 S  S2  1  0.53113  0.06226  0.96831  1
 S  S3  1  0.46887  0.53113  0.46831  1
 S  S4  1  0.93774  0.46887  0.96831  1
 S  S5  1  0.53113  0.46887  0.96831  1
 S  S6  1  0.46887  0.93774  0.46831  1
