CIF file written using JARVIS-Tools package.
data_RbAgSe4
_symmetry_space_group_name_H-M  'P2_12_12_1'
_cell_length_a       5.82279
_cell_length_b       8.86051
_cell_length_c       13.3375
_cell_angle_alpha    90
_cell_angle_beta     90
_cell_angle_gamma    90

_symmetry_Int_Tables_number  19
_chemical_formula_structural  RbAgSe4
_chemical_formula_sum  Rb4Ag4Se6
_cell_volume  688.1189652516591
_cell_formula_units_Z  4
loop_
  _symmetry_equiv_pos_site_id
 _symmetry_equiv_pos_as_xyz
 1  'x, y, z'
loop_
 _atom_site_type_symbol
 _atom_site_label
 _atom_site_symmetry_multiplicity
 _atom_site_fract_x
 _atom_site_fract_y
 _atom_site_fract_z
 _atom_site_fract_occupancy
 Ag  Ag1  1  0.96471  0.86780  0.06656  1
 Ag  Ag2  1  0.46471  0.63220  0.93344  1
 Ag  Ag3  1  0.03529  0.36780  0.43344  1
 Ag  Ag4  1  0.53529  0.13220  0.56656  1
 Rb  Rb1  1  0.16482  0.44980  0.16145  1
 Rb  Rb2  1  0.66482  0.05020  0.83855  1
 Rb  Rb3  1  0.83518  0.94980  0.33855  1
 Rb  Rb4  1  0.33518  0.55020  0.66145  1
 Se  Se1  1  0.86735  0.31823  0.61465  1
 Se  Se2  1  0.36735  0.18177  0.38535  1
 Se  Se3  1  0.13265  0.81823  0.88535  1
 Se  Se4  1  0.59016  0.58432  0.42392  1
 Se  Se5  1  0.13473  0.13642  0.68452  1
 Se  Se6  1  0.63473  0.36358  0.31548  1
 Se  Se7  1  0.63265  0.68177  0.11465  1
 Se  Se8  1  0.19199  0.64318  0.39692  1
 Se  Se9  1  0.80801  0.14318  0.10308  1
 Se  Se10  1  0.30801  0.35682  0.89692  1
 Se  Se11  1  0.86527  0.63642  0.81548  1
 Se  Se12  1  0.69199  0.85682  0.60308  1
 Se  Se13  1  0.40984  0.08432  0.07608  1
 Se  Se14  1  0.90984  0.41568  0.92392  1
 Se  Se15  1  0.36527  0.86358  0.18452  1
 Se  Se16  1  0.09016  0.91568  0.57608  1
