CIF file written using JARVIS-Tools package.
data_Mg5Pt
_symmetry_space_group_name_H-M  'C2/m'
_cell_length_a       5.41438
_cell_length_b       5.41437
_cell_length_c       6.63527
_cell_angle_alpha    72.2442
_cell_angle_beta     72.2441
_cell_angle_gamma    39.1989

_symmetry_Int_Tables_number  12
_chemical_formula_structural  Mg5Pt
_chemical_formula_sum  Mg5Pt
_cell_volume  116.3173471444277
_cell_formula_units_Z  1
loop_
  _symmetry_equiv_pos_site_id
 _symmetry_equiv_pos_as_xyz
 1  'x, y, z'
loop_
 _atom_site_type_symbol
 _atom_site_label
 _atom_site_symmetry_multiplicity
 _atom_site_fract_x
 _atom_site_fract_y
 _atom_site_fract_z
 _atom_site_fract_occupancy
 Mg  Mg1  1  0.65940  0.65940  0.69461  1
 Mg  Mg2  1  0.00000  -0.00000  0.50000  1
 Mg  Mg3  1  0.34060  0.34060  0.30539  1
 Mg  Mg4  1  0.65052  0.65052  0.14927  1
 Mg  Mg5  1  0.34948  0.34948  0.85073  1
 Pt  Pt1  1  0.00000  0.00000  0.00000  1
