CIF file written using JARVIS-Tools package.
data_NaBiTe2
_symmetry_space_group_name_H-M  'R-3m'
_cell_length_a       7.98824
_cell_length_b       7.98824
_cell_length_c       7.98825
_cell_angle_alpha    32.6914
_cell_angle_beta     32.6914
_cell_angle_gamma    32.6914

_symmetry_Int_Tables_number  166
_chemical_formula_structural  NaBiTe2
_chemical_formula_sum  NaBiTe2
_cell_volume  132.26878319706734
_cell_formula_units_Z  1
loop_
  _symmetry_equiv_pos_site_id
 _symmetry_equiv_pos_as_xyz
 1  'x, y, z'
loop_
 _atom_site_type_symbol
 _atom_site_label
 _atom_site_symmetry_multiplicity
 _atom_site_fract_x
 _atom_site_fract_y
 _atom_site_fract_z
 _atom_site_fract_occupancy
 Bi  Bi1  1  0.00000  0.00000  0.00000  1
 Na  Na1  1  0.50000  0.50000  0.50000  1
 Te  Te1  1  0.25258  0.25258  0.25258  1
 Te  Te2  1  0.74742  0.74742  0.74742  1
