CIF file written using JARVIS-Tools package.
data_La2SbO2
_symmetry_space_group_name_H-M  'I4/mmm'
_cell_length_a       7.54762
_cell_length_b       7.54762
_cell_length_c       7.54762
_cell_angle_alpha    148.832
_cell_angle_beta     148.801
_cell_angle_gamma    44.6817

_symmetry_Int_Tables_number  139
_chemical_formula_structural  La2SbO2
_chemical_formula_sum  La2SbO2
_cell_volume  114.92223458328425
_cell_formula_units_Z  1
loop_
  _symmetry_equiv_pos_site_id
 _symmetry_equiv_pos_as_xyz
 1  'x, y, z'
loop_
 _atom_site_type_symbol
 _atom_site_label
 _atom_site_symmetry_multiplicity
 _atom_site_fract_x
 _atom_site_fract_y
 _atom_site_fract_z
 _atom_site_fract_occupancy
 La  La1  1  0.33807  0.35272  0.01465  1
 La  La2  1  0.66193  0.67657  0.01465  1
 O  O1  1  0.75012  0.26471  0.51459  1
 O  O2  1  0.24988  0.76447  0.51459  1
 Sb  Sb1  1  0.00000  0.01453  0.01453  1
