CIF file written using JARVIS-Tools package.
data_TiVH4
_symmetry_space_group_name_H-M  'R-3m'
_cell_length_a       5.28126
_cell_length_b       5.28126
_cell_length_c       5.28126
_cell_angle_alpha    33.6429
_cell_angle_beta     33.6429
_cell_angle_gamma    33.6429

_symmetry_Int_Tables_number  166
_chemical_formula_structural  TiVH4
_chemical_formula_sum  TiVH4
_cell_volume  40.27729105981947
_cell_formula_units_Z  1
loop_
  _symmetry_equiv_pos_site_id
 _symmetry_equiv_pos_as_xyz
 1  'x, y, z'
loop_
 _atom_site_type_symbol
 _atom_site_label
 _atom_site_symmetry_multiplicity
 _atom_site_fract_x
 _atom_site_fract_y
 _atom_site_fract_z
 _atom_site_fract_occupancy
 H  H1  1  0.62167  0.62167  0.62167  1
 H  H2  1  0.12830  0.12830  0.12830  1
 H  H3  1  0.87170  0.87170  0.87170  1
 H  H4  1  0.37833  0.37833  0.37833  1
 Ti  Ti1  1  0.00000  0.00000  0.00000  1
 V  V1  1  0.50000  0.50000  0.50000  1
