CIF file written using JARVIS-Tools package.
data_ZnS
_symmetry_space_group_name_H-M  'P6_3mc'
_cell_length_a       3.84124
_cell_length_b       3.84124
_cell_length_c       43.95
_cell_angle_alpha    90
_cell_angle_beta     90
_cell_angle_gamma    120

_symmetry_Int_Tables_number  186
_chemical_formula_structural  ZnS
_chemical_formula_sum  Zn4S4
_cell_volume  561.6075489715864
_cell_formula_units_Z  14
loop_
  _symmetry_equiv_pos_site_id
 _symmetry_equiv_pos_as_xyz
 1  'x, y, z'
loop_
 _atom_site_type_symbol
 _atom_site_label
 _atom_site_symmetry_multiplicity
 _atom_site_fract_x
 _atom_site_fract_y
 _atom_site_fract_z
 _atom_site_fract_occupancy
 S  S1  1  0.33333  0.66667  0.37493  1
 S  S2  1  0.00000  0.00000  0.30354  1
 S  S3  1  0.33333  0.66667  0.51799  1
 S  S4  1  0.33333  0.66667  0.94636  1
 S  S5  1  0.66667  0.33333  0.66076  1
 S  S6  1  0.66667  0.33333  0.23215  1
 S  S7  1  0.00000  0.00000  0.58937  1
 S  S8  1  0.00000  0.00000  0.80354  1
 S  S9  1  0.66667  0.33333  0.87493  1
 S  S10  1  0.33333  0.66667  0.16076  1
 S  S11  1  0.66667  0.33333  0.01799  1
 S  S12  1  0.66667  0.33333  0.44636  1
 S  S13  1  0.33333  0.66667  0.73215  1
 S  S14  1  0.00000  0.00000  0.08937  1
 Zn  Zn1  1  0.66667  0.33333  0.92844  1
 Zn  Zn2  1  0.33333  0.66667  0.21429  1
 Zn  Zn3  1  0.33333  0.66667  0.42844  1
 Zn  Zn4  1  0.00000  0.00000  0.85707  1
 Zn  Zn5  1  0.00000  0.00000  0.64290  1
 Zn  Zn6  1  0.33333  0.66667  0.57151  1
 Zn  Zn7  1  0.33333  0.66667  0.78568  1
 Zn  Zn8  1  0.66667  0.33333  0.28568  1
 Zn  Zn9  1  0.66667  0.33333  0.71429  1
 Zn  Zn10  1  0.33333  0.66667  0.00000  1
 Zn  Zn11  1  0.66667  0.33333  0.50000  1
 Zn  Zn12  1  0.00000  0.00000  0.14290  1
 Zn  Zn13  1  0.00000  0.00000  0.35707  1
 Zn  Zn14  1  0.66667  0.33333  0.07151  1
