CIF file written using JARVIS-Tools package.
data_Na2Cd3P4O14
_symmetry_space_group_name_H-M  'P-1'
_cell_length_a       5.70565
_cell_length_b       7.06788
_cell_length_c       7.92086
_cell_angle_alpha    77.0339
_cell_angle_beta     82.8251
_cell_angle_gamma    67.8411

_symmetry_Int_Tables_number  2
_chemical_formula_structural  Na2Cd3P4O14
_chemical_formula_sum  Na2Cd3P4O4
_cell_volume  288.0010125785627
_cell_formula_units_Z  1
loop_
  _symmetry_equiv_pos_site_id
 _symmetry_equiv_pos_as_xyz
 1  'x, y, z'
loop_
 _atom_site_type_symbol
 _atom_site_label
 _atom_site_symmetry_multiplicity
 _atom_site_fract_x
 _atom_site_fract_y
 _atom_site_fract_z
 _atom_site_fract_occupancy
 Cd  Cd1  1  0.18882  0.53613  0.30857  1
 Cd  Cd2  1  0.00000  0.00000  0.00000  1
 Cd  Cd3  1  0.81118  0.46387  0.69143  1
 Na  Na1  1  0.58272  0.00871  0.68292  1
 Na  Na2  1  0.41728  0.99129  0.31708  1
 O  O1  1  0.25287  0.57449  0.85056  1
 O  O2  1  0.55176  0.26143  0.42591  1
 O  O3  1  0.03123  0.94115  0.72128  1
 O  O4  1  0.96877  0.05885  0.27872  1
 O  O5  1  0.94613  0.34231  0.43931  1
 O  O6  1  0.68640  0.69828  0.88159  1
 O  O7  1  0.31360  0.30172  0.11841  1
 O  O8  1  0.44824  0.73857  0.57409  1
 O  O9  1  0.81271  0.76186  0.15633  1
 O  O10  1  0.05387  0.65769  0.56069  1
 O  O11  1  0.18729  0.23814  0.84367  1
 O  O12  1  0.37328  0.76054  0.14235  1
 O  O13  1  0.62672  0.23946  0.85765  1
 O  O14  1  0.74713  0.42551  0.14944  1
 P  P1  1  0.80501  0.26203  0.33471  1
 P  P2  1  0.34644  0.32838  0.92376  1
 P  P3  1  0.65356  0.67162  0.07624  1
 P  P4  1  0.19499  0.73797  0.66529  1
