CIF file written using JARVIS-Tools package.
data_TeMoWSeS2
_symmetry_space_group_name_H-M  'P3m1'
_cell_length_a       3.31794
_cell_length_b       3.31795
_cell_length_c       37.573
_cell_angle_alpha    89.9983
_cell_angle_beta     90
_cell_angle_gamma    120

_symmetry_Int_Tables_number  156
_chemical_formula_structural  TeMoWSeS2
_chemical_formula_sum  Te2Mo2W2Se2S4
_cell_volume  358.2165572042844
_cell_formula_units_Z  2
loop_
  _symmetry_equiv_pos_site_id
 _symmetry_equiv_pos_as_xyz
 1  'x, y, z'
loop_
 _atom_site_type_symbol
 _atom_site_label
 _atom_site_symmetry_multiplicity
 _atom_site_fract_x
 _atom_site_fract_y
 _atom_site_fract_z
 _atom_site_fract_occupancy
 Mo  Mo1  1  0.33332  0.66664  0.09390  1
 Mo  Mo2  1  0.66670  0.33339  0.28176  1
 S  S1  1  0.33335  0.66670  0.32245  1
 S  S2  1  0.66663  0.33326  0.05347  1
 S  S3  1  0.66664  0.33328  0.13460  1
 S  S4  1  0.33334  0.66668  0.24115  1
 Se  Se1  1  0.66665  0.33331  0.42447  1
 Se  Se2  1  0.66667  0.33333  0.51417  1
 Te  Te1  1  0.33335  0.66670  0.70878  1
 Te  Te2  1  0.33334  0.66669  0.60666  1
 W  W1  1  0.33332  0.66665  0.46947  1
 W  W2  1  0.66668  0.33337  0.65786  1
