CIF file written using JARVIS-Tools package.
data_Pr2Ga3Cu
_symmetry_space_group_name_H-M  'P3m1'
_cell_length_a       4.40275
_cell_length_b       4.40275
_cell_length_c       7.92959
_cell_angle_alpha    90
_cell_angle_beta     90
_cell_angle_gamma    120

_symmetry_Int_Tables_number  156
_chemical_formula_structural  Pr2Ga3Cu
_chemical_formula_sum  Pr2Ga3Cu
_cell_volume  133.11577107201353
_cell_formula_units_Z  1
loop_
  _symmetry_equiv_pos_site_id
 _symmetry_equiv_pos_as_xyz
 1  'x, y, z'
loop_
 _atom_site_type_symbol
 _atom_site_label
 _atom_site_symmetry_multiplicity
 _atom_site_fract_x
 _atom_site_fract_y
 _atom_site_fract_z
 _atom_site_fract_occupancy
 Cu  Cu1  1  0.00000  0.00000  0.51283  1
 Ga  Ga1  1  0.66667  0.33333  0.48968  1
 Ga  Ga2  1  0.66667  0.33333  0.03343  1
 Ga  Ga3  1  0.00000  0.00000  0.96586  1
 Pr  Pr1  1  0.33333  0.66667  0.73449  1
 Pr  Pr2  1  0.33333  0.66667  0.26371  1
