CIF file written using JARVIS-Tools package.
data_Ti2C
_symmetry_space_group_name_H-M  'R-3m'
_cell_length_a       5.11489
_cell_length_b       5.11489
_cell_length_c       5.11489
_cell_angle_alpha    35.0514
_cell_angle_beta     35.0514
_cell_angle_gamma    35.0514

_symmetry_Int_Tables_number  166
_chemical_formula_structural  Ti2C
_chemical_formula_sum  Ti2C
_cell_volume  39.41257127282139
_cell_formula_units_Z  1
loop_
  _symmetry_equiv_pos_site_id
 _symmetry_equiv_pos_as_xyz
 1  'x, y, z'
loop_
 _atom_site_type_symbol
 _atom_site_label
 _atom_site_symmetry_multiplicity
 _atom_site_fract_x
 _atom_site_fract_y
 _atom_site_fract_z
 _atom_site_fract_occupancy
 C  C1  1  0.50000  0.50000  0.50000  1
 Ti  Ti1  1  0.24635  0.24635  0.24635  1
 Ti  Ti2  1  0.75365  0.75365  0.75365  1
