CIF file written using JARVIS-Tools package.
data_Zn3CdO4
_symmetry_space_group_name_H-M  'P3m1'
_cell_length_a       3.33153
_cell_length_b       3.33153
_cell_length_c       11.0263
_cell_angle_alpha    90
_cell_angle_beta     90
_cell_angle_gamma    120

_symmetry_Int_Tables_number  156
_chemical_formula_structural  Zn3CdO4
_chemical_formula_sum  Zn3CdO4
_cell_volume  105.98569321562454
_cell_formula_units_Z  1
loop_
  _symmetry_equiv_pos_site_id
 _symmetry_equiv_pos_as_xyz
 1  'x, y, z'
loop_
 _atom_site_type_symbol
 _atom_site_label
 _atom_site_symmetry_multiplicity
 _atom_site_fract_x
 _atom_site_fract_y
 _atom_site_fract_z
 _atom_site_fract_occupancy
 Cd  Cd1  1  0.66667  0.33333  0.75639  1
 O  O1  1  0.66667  0.33333  0.95846  1
 O  O2  1  0.66667  0.33333  0.43129  1
 O  O3  1  0.00000  0.00000  0.66563  1
 O  O4  1  0.00000  0.00000  0.19480  1
 Zn  Zn1  1  0.66667  0.33333  0.25121  1
 Zn  Zn2  1  0.00000  0.00000  0.01457  1
 Zn  Zn3  1  0.00000  0.00000  0.48764  1
