CIF file written using JARVIS-Tools package.
data_MnFeP2
_symmetry_space_group_name_H-M  'Pmc2_1'
_cell_length_a       3.18111
_cell_length_b       5.14552
_cell_length_c       5.78439
_cell_angle_alpha    90
_cell_angle_beta     90
_cell_angle_gamma    90

_symmetry_Int_Tables_number  26
_chemical_formula_structural  MnFeP2
_chemical_formula_sum  Mn2Fe2P4
_cell_volume  94.6814525415221
_cell_formula_units_Z  2
loop_
  _symmetry_equiv_pos_site_id
 _symmetry_equiv_pos_as_xyz
 1  'x, y, z'
loop_
 _atom_site_type_symbol
 _atom_site_label
 _atom_site_symmetry_multiplicity
 _atom_site_fract_x
 _atom_site_fract_y
 _atom_site_fract_z
 _atom_site_fract_occupancy
 Fe  Fe1  1  0.50000  0.49803  0.05269  1
 Fe  Fe2  1  0.50000  0.99803  0.94731  1
 Mn  Mn1  1  0.00000  0.50005  0.45354  1
 Mn  Mn2  1  0.00000  0.00005  0.54646  1
 P  P1  1  0.50000  0.30914  0.68253  1
 P  P2  1  0.50000  0.80914  0.31747  1
 P  P3  1  0.00000  0.69279  0.82802  1
 P  P4  1  0.00000  0.19279  0.17198  1
