CIF file written using JARVIS-Tools package.
data_Zr2Co4P3
_symmetry_space_group_name_H-M  'P-62m'
_cell_length_a       12.1329
_cell_length_b       12.1329
_cell_length_c       3.67538
_cell_angle_alpha    90
_cell_angle_beta     90
_cell_angle_gamma    120

_symmetry_Int_Tables_number  189
_chemical_formula_structural  Zr2Co4P3
_chemical_formula_sum  Zr8Co6P2
_cell_volume  468.55783889289853
_cell_formula_units_Z  4
loop_
  _symmetry_equiv_pos_site_id
 _symmetry_equiv_pos_as_xyz
 1  'x, y, z'
loop_
 _atom_site_type_symbol
 _atom_site_label
 _atom_site_symmetry_multiplicity
 _atom_site_fract_x
 _atom_site_fract_y
 _atom_site_fract_z
 _atom_site_fract_occupancy
 Co  Co1  1  0.51841  0.87380  0.50000  1
 Co  Co2  1  0.62815  0.80712  0.00000  1
 Co  Co3  1  0.19288  0.82103  0.00000  1
 Co  Co4  1  0.37185  0.17897  0.00000  1
 Co  Co5  1  0.82103  0.19288  0.00000  1
 Co  Co6  1  0.80712  0.62815  0.00000  1
 Co  Co7  1  0.12620  0.64461  0.50000  1
 Co  Co8  1  0.64461  0.12620  0.50000  1
 Co  Co9  1  0.48159  0.35539  0.50000  1
 Co  Co10  1  0.87380  0.51841  0.50000  1
 Co  Co11  1  0.35539  0.48159  0.50000  1
 Co  Co12  1  0.00000  0.00000  0.00000  1
 Co  Co13  1  0.27695  -0.00000  0.50000  1
 Co  Co14  1  0.17897  0.37185  0.00000  1
 Co  Co15  1  0.72305  0.72305  0.50000  1
 Co  Co16  1  -0.00000  0.27695  0.50000  1
 P  P1  1  0.17391  0.48170  0.50000  1
 P  P2  1  0.48170  0.17391  0.50000  1
 P  P3  1  0.30779  0.82609  0.50000  1
 P  P4  1  -0.00000  0.65399  0.00000  1
 P  P5  1  0.69221  0.51830  0.50000  1
 P  P6  1  0.65399  -0.00000  0.00000  1
 P  P7  1  0.34601  0.34601  0.00000  1
 P  P8  1  0.51830  0.69221  0.50000  1
 P  P9  1  0.00000  0.17560  0.00000  1
 P  P10  1  0.82440  0.82440  0.00000  1
 P  P11  1  0.82609  0.30779  0.50000  1
 P  P12  1  0.17560  0.00000  0.00000  1
 Zr  Zr1  1  0.82307  -0.00000  0.50000  1
 Zr  Zr2  1  -0.00000  0.82307  0.50000  1
 Zr  Zr3  1  0.17693  0.17693  0.50000  1
 Zr  Zr4  1  0.33333  0.66667  0.00000  1
 Zr  Zr5  1  0.66667  0.33333  0.00000  1
 Zr  Zr6  1  0.44350  0.00000  0.00000  1
 Zr  Zr7  1  0.00000  0.44350  0.00000  1
 Zr  Zr8  1  0.55650  0.55650  0.00000  1
