CIF file written using JARVIS-Tools package.
data_CeAl3Pd
_symmetry_space_group_name_H-M  'I-4m2'
_cell_length_a       6.26533
_cell_length_b       6.26533
_cell_length_c       6.26533
_cell_angle_alpha    140.602
_cell_angle_beta     140.602
_cell_angle_gamma    56.9402

_symmetry_Int_Tables_number  119
_chemical_formula_structural  CeAl3Pd
_chemical_formula_sum  CeAl3Pd
_cell_volume  98.25938725902752
_cell_formula_units_Z  1
loop_
  _symmetry_equiv_pos_site_id
 _symmetry_equiv_pos_as_xyz
 1  'x, y, z'
loop_
 _atom_site_type_symbol
 _atom_site_label
 _atom_site_symmetry_multiplicity
 _atom_site_fract_x
 _atom_site_fract_y
 _atom_site_fract_z
 _atom_site_fract_occupancy
 Al  Al1  1  0.61574  0.61574  0.00000  1
 Al  Al2  1  0.38426  0.38426  -0.00000  1
 Al  Al3  1  0.75000  0.25000  0.50000  1
 Ce  Ce1  1  0.00000  0.00000  0.00000  1
 Pd  Pd1  1  0.25000  0.75000  0.50000  1
