CIF file written using JARVIS-Tools package.
data_SO4
_symmetry_space_group_name_H-M  'C2/c'
_cell_length_a       4.81583
_cell_length_b       4.81583
_cell_length_c       8.75817
_cell_angle_alpha    61.5428
_cell_angle_beta     61.5428
_cell_angle_gamma    52.1525

_symmetry_Int_Tables_number  15
_chemical_formula_structural  SO4
_chemical_formula_sum  S2O8
_cell_volume  135.96340645795004
_cell_formula_units_Z  2
loop_
  _symmetry_equiv_pos_site_id
 _symmetry_equiv_pos_as_xyz
 1  'x, y, z'
loop_
 _atom_site_type_symbol
 _atom_site_label
 _atom_site_symmetry_multiplicity
 _atom_site_fract_x
 _atom_site_fract_y
 _atom_site_fract_z
 _atom_site_fract_occupancy
 O  O1  1  0.82177  0.18374  -0.00513  1
 O  O2  1  0.18374  0.82177  0.49487  1
 O  O3  1  0.90843  0.35783  0.58621  1
 O  O4  1  0.35783  0.90843  0.08621  1
 O  O5  1  0.14595  0.50777  0.87437  1
 O  O6  1  0.50777  0.14595  0.37437  1
 O  O7  1  0.42103  0.97186  0.78296  1
 O  O8  1  0.97186  0.42103  0.28296  1
 S  S1  1  0.14353  0.18608  0.43460  1
 S  S2  1  0.18608  0.14353  0.93460  1
