CIF file written using JARVIS-Tools package.
data_NdSmMn4Ge4
_symmetry_space_group_name_H-M  'P4/mmm'
_cell_length_a       3.98556
_cell_length_b       3.98556
_cell_length_c       10.912
_cell_angle_alpha    90
_cell_angle_beta     90
_cell_angle_gamma    90

_symmetry_Int_Tables_number  123
_chemical_formula_structural  NdSmMn4Ge4
_chemical_formula_sum  NdSmMn4Ge4
_cell_volume  173.333846181753
_cell_formula_units_Z  1
loop_
  _symmetry_equiv_pos_site_id
 _symmetry_equiv_pos_as_xyz
 1  'x, y, z'
loop_
 _atom_site_type_symbol
 _atom_site_label
 _atom_site_symmetry_multiplicity
 _atom_site_fract_x
 _atom_site_fract_y
 _atom_site_fract_z
 _atom_site_fract_occupancy
 Ge  Ge1  1  0.50000  0.50000  0.12510  1
 Ge  Ge2  1  0.00000  0.00000  0.62188  1
 Ge  Ge3  1  0.00000  0.00000  0.37812  1
 Ge  Ge4  1  0.50000  0.50000  0.87490  1
 Mn  Mn1  1  0.00000  0.50000  0.25180  1
 Mn  Mn2  1  0.50000  0.00000  0.74820  1
 Mn  Mn3  1  0.50000  0.00000  0.25180  1
 Mn  Mn4  1  0.00000  0.50000  0.74820  1
 Nd  Nd1  1  0.00000  0.00000  0.00000  1
 Sm  Sm1  1  0.50000  0.50000  0.50000  1
