CIF file written using JARVIS-Tools package.
data_Nd2Mg
_symmetry_space_group_name_H-M  'I4/mmm'
_cell_length_a       7.25871
_cell_length_b       7.2587
_cell_length_c       7.41352
_cell_angle_alpha    75.2013
_cell_angle_beta     75.2013
_cell_angle_gamma    29.5636

_symmetry_Int_Tables_number  139
_chemical_formula_structural  Nd2Mg
_chemical_formula_sum  Nd4Mg2
_cell_volume  185.87676134042937
_cell_formula_units_Z  2
loop_
  _symmetry_equiv_pos_site_id
 _symmetry_equiv_pos_as_xyz
 1  'x, y, z'
loop_
 _atom_site_type_symbol
 _atom_site_label
 _atom_site_symmetry_multiplicity
 _atom_site_fract_x
 _atom_site_fract_y
 _atom_site_fract_z
 _atom_site_fract_occupancy
 Mg  Mg1  1  0.49998  0.49998  0.75017  1
 Mg  Mg2  1  0.50002  0.50002  0.24983  1
 Nd  Nd1  1  0.84156  0.84156  0.57911  1
 Nd  Nd2  1  0.15844  0.15844  0.42089  1
 Nd  Nd3  1  0.84145  0.84145  0.07924  1
 Nd  Nd4  1  0.15855  0.15855  0.92076  1
