CIF file written using JARVIS-Tools package.
data_Li2MnN2
_symmetry_space_group_name_H-M  'P-3m1'
_cell_length_a       3.01564
_cell_length_b       3.01552
_cell_length_c       5.29189
_cell_angle_alpha    90.0011
_cell_angle_beta     89.9988
_cell_angle_gamma    120.001

_symmetry_Int_Tables_number  164
_chemical_formula_structural  Li2MnN2
_chemical_formula_sum  Li2MnN2
_cell_volume  41.67525376282789
_cell_formula_units_Z  1
loop_
  _symmetry_equiv_pos_site_id
 _symmetry_equiv_pos_as_xyz
 1  'x, y, z'
loop_
 _atom_site_type_symbol
 _atom_site_label
 _atom_site_symmetry_multiplicity
 _atom_site_fract_x
 _atom_site_fract_y
 _atom_site_fract_z
 _atom_site_fract_occupancy
 Li  Li1  1  0.66666  0.33335  0.35942  1
 Li  Li2  1  0.33334  0.66668  0.64058  1
 Mn  Mn1  1  -0.00000  0.00001  0.00000  1
 N  N1  1  0.66668  0.33336  0.79566  1
 N  N2  1  0.33332  0.66667  0.20434  1
