CIF file written using JARVIS-Tools package.
data_GaAsO4
_symmetry_space_group_name_H-M  'P3_121'
_cell_length_a       4.9927
_cell_length_b       4.9927
_cell_length_c       11.5697
_cell_angle_alpha    90
_cell_angle_beta     90
_cell_angle_gamma    120

_symmetry_Int_Tables_number  152
_chemical_formula_structural  GaAsO4
_chemical_formula_sum  Ga3As3O2
_cell_volume  249.76008561374184
_cell_formula_units_Z  3
loop_
  _symmetry_equiv_pos_site_id
 _symmetry_equiv_pos_as_xyz
 1  'x, y, z'
loop_
 _atom_site_type_symbol
 _atom_site_label
 _atom_site_symmetry_multiplicity
 _atom_site_fract_x
 _atom_site_fract_y
 _atom_site_fract_z
 _atom_site_fract_occupancy
 As  As1  1  0.44416  -0.00000  0.83333  1
 As  As2  1  -0.00000  0.44416  0.16667  1
 As  As3  1  0.55584  0.55584  0.50000  1
 Ga  Ga1  1  0.44676  -0.00000  0.33333  1
 Ga  Ga2  1  -0.00000  0.44676  0.66667  1
 Ga  Ga3  1  0.55324  0.55324  0.00000  1
 O  O1  1  0.30250  0.39031  0.12997  1
 O  O2  1  0.60969  0.91219  0.46330  1
 O  O3  1  0.60726  0.93112  0.95232  1
 O  O4  1  0.91219  0.60969  0.53670  1
 O  O5  1  0.08781  0.69750  0.79663  1
 O  O6  1  0.67614  0.06888  0.71434  1
 O  O7  1  0.39274  0.32386  0.38101  1
 O  O8  1  0.69750  0.08781  0.20337  1
 O  O9  1  0.93112  0.60726  0.04768  1
 O  O10  1  0.06888  0.67614  0.28566  1
 O  O11  1  0.39031  0.30250  0.87003  1
 O  O12  1  0.32386  0.39274  0.61899  1
