CIF file written using JARVIS-Tools package.
data_Br
_symmetry_space_group_name_H-M  'Immm'
_cell_length_a       2.60641
_cell_length_b       3.42197
_cell_length_c       4.03639
_cell_angle_alpha    115.081
_cell_angle_beta     108.836
_cell_angle_gamma    90

_symmetry_Int_Tables_number  71
_chemical_formula_structural  Br
_chemical_formula_sum  Br
_cell_volume  30.464313047369206
_cell_formula_units_Z  1
loop_
  _symmetry_equiv_pos_site_id
 _symmetry_equiv_pos_as_xyz
 1  'x, y, z'
loop_
 _atom_site_type_symbol
 _atom_site_label
 _atom_site_symmetry_multiplicity
 _atom_site_fract_x
 _atom_site_fract_y
 _atom_site_fract_z
 _atom_site_fract_occupancy
 Br  Br1  1  0.00000  0.00000  0.00000  1
