CIF file written using JARVIS-Tools package.
data_SrN2O6
_symmetry_space_group_name_H-M  'Pa-3'
_cell_length_a       7.77644
_cell_length_b       7.77644
_cell_length_c       7.77644
_cell_angle_alpha    90
_cell_angle_beta     90
_cell_angle_gamma    90

_symmetry_Int_Tables_number  205
_chemical_formula_structural  SrN2O6
_chemical_formula_sum  Sr4N8O24
_cell_volume  470.26480878849543
_cell_formula_units_Z  4
loop_
  _symmetry_equiv_pos_site_id
 _symmetry_equiv_pos_as_xyz
 1  'x, y, z'
loop_
 _atom_site_type_symbol
 _atom_site_label
 _atom_site_symmetry_multiplicity
 _atom_site_fract_x
 _atom_site_fract_y
 _atom_site_fract_z
 _atom_site_fract_occupancy
 N  N1  1  0.34354  0.34354  0.34354  1
 N  N2  1  0.84354  0.15646  0.65646  1
 N  N3  1  0.15646  0.65646  0.84354  1
 N  N4  1  0.65646  0.65646  0.65646  1
 N  N5  1  0.65646  0.84354  0.15646  1
 N  N6  1  0.15646  0.84354  0.34354  1
 N  N7  1  0.34354  0.15646  0.84354  1
 N  N8  1  0.84354  0.34354  0.15646  1
 O  O1  1  0.71843  0.97634  0.22778  1
 O  O2  1  0.97634  0.22778  0.71843  1
 O  O3  1  0.21843  0.52366  0.77222  1
 O  O4  1  0.28157  0.47634  0.27222  1
 O  O5  1  0.97634  0.27222  0.21843  1
 O  O6  1  0.52366  0.72778  0.71843  1
 O  O7  1  0.27222  0.21843  0.97634  1
 O  O8  1  0.47634  0.27222  0.28157  1
 O  O9  1  0.22778  0.78157  0.47634  1
 O  O10  1  0.21843  0.97634  0.27222  1
 O  O11  1  0.77222  0.28157  0.02366  1
 O  O12  1  0.27222  0.28157  0.47634  1
 O  O13  1  0.52366  0.77222  0.21843  1
 O  O14  1  0.47634  0.22778  0.78157  1
 O  O15  1  0.72778  0.78157  0.02366  1
 O  O16  1  0.22778  0.71843  0.97634  1
 O  O17  1  0.72778  0.71843  0.52366  1
 O  O18  1  0.02366  0.72778  0.78157  1
 O  O19  1  0.71843  0.52366  0.72778  1
 O  O20  1  0.78157  0.47634  0.22778  1
 O  O21  1  0.02366  0.77222  0.28157  1
 O  O22  1  0.28157  0.02366  0.77222  1
 O  O23  1  0.78157  0.02366  0.72778  1
 O  O24  1  0.77222  0.21843  0.52366  1
 Sr  Sr1  1  0.00000  0.00000  0.00000  1
 Sr  Sr2  1  0.50000  0.00000  0.50000  1
 Sr  Sr3  1  0.50000  0.50000  0.00000  1
 Sr  Sr4  1  0.00000  0.50000  0.50000  1
