CIF file written using JARVIS-Tools package.
data_KCr4O8
_symmetry_space_group_name_H-M  'I4/m'
_cell_length_a       2.95389
_cell_length_b       7.07234
_cell_length_c       7.07233
_cell_angle_alpha    87.5004
_cell_angle_beta     77.946
_cell_angle_gamma    77.946

_symmetry_Int_Tables_number  87
_chemical_formula_structural  KCr4O8
_chemical_formula_sum  KCr4O8
_cell_volume  141.30378845200153
_cell_formula_units_Z  1
loop_
  _symmetry_equiv_pos_site_id
 _symmetry_equiv_pos_as_xyz
 1  'x, y, z'
loop_
 _atom_site_type_symbol
 _atom_site_label
 _atom_site_symmetry_multiplicity
 _atom_site_fract_x
 _atom_site_fract_y
 _atom_site_fract_z
 _atom_site_fract_occupancy
 Cr  Cr1  1  0.83557  0.51266  0.81621  1
 Cr  Cr2  1  0.16444  0.48734  0.18379  1
 Cr  Cr3  1  0.34822  0.81621  0.48734  1
 Cr  Cr4  1  0.65178  0.18379  0.51266  1
 K  K1  1  0.50000  0.00000  0.00000  1
 O  O1  1  0.45920  0.37820  0.70339  1
 O  O2  1  0.16259  0.29661  0.37820  1
 O  O3  1  0.83741  0.70339  0.62180  1
 O  O4  1  0.54080  0.62180  0.29661  1
 O  O5  1  0.84659  0.95240  0.35443  1
 O  O6  1  0.15341  0.04760  0.64557  1
 O  O7  1  0.20101  0.64558  0.95240  1
 O  O8  1  0.79899  0.35442  0.04760  1
