CIF file written using JARVIS-Tools package.
data_CaAu2O4
_symmetry_space_group_name_H-M  'I4_1/a'
_cell_length_a       6.04164
_cell_length_b       6.04165
_cell_length_c       6.6307
_cell_angle_alpha    117.102
_cell_angle_beta     117.102
_cell_angle_gamma    90

_symmetry_Int_Tables_number  88
_chemical_formula_structural  CaAu2O4
_chemical_formula_sum  Ca2Au4O8
_cell_volume  185.10055527642047
_cell_formula_units_Z  2
loop_
  _symmetry_equiv_pos_site_id
 _symmetry_equiv_pos_as_xyz
 1  'x, y, z'
loop_
 _atom_site_type_symbol
 _atom_site_label
 _atom_site_symmetry_multiplicity
 _atom_site_fract_x
 _atom_site_fract_y
 _atom_site_fract_z
 _atom_site_fract_occupancy
 Au  Au1  1  0.50000  -0.00000  0.50000  1
 Au  Au2  1  0.50000  0.50000  -0.00000  1
 Au  Au3  1  -0.00000  -0.00000  0.50000  1
 Au  Au4  1  0.50000  0.00000  -0.00000  1
 Ca  Ca1  1  0.12500  0.37500  0.25000  1
 Ca  Ca2  1  0.87500  0.62500  0.75000  1
 O  O1  1  0.83180  0.22123  0.34952  1
 O  O2  1  0.12829  0.33180  0.84952  1
 O  O3  1  0.72123  0.01771  0.84952  1
 O  O4  1  0.51771  0.62829  0.34952  1
 O  O5  1  0.16820  0.77877  0.65048  1
 O  O6  1  0.87171  0.66820  0.15048  1
 O  O7  1  0.48229  0.37171  0.65048  1
 O  O8  1  0.27877  0.98229  0.15048  1
