CIF file written using JARVIS-Tools package.
data_SrI2
_symmetry_space_group_name_H-M  'P4_2/mnm'
_cell_length_a       7.66981
_cell_length_b       7.66981
_cell_length_c       4.92306
_cell_angle_alpha    90
_cell_angle_beta     90
_cell_angle_gamma    90

_symmetry_Int_Tables_number  136
_chemical_formula_structural  SrI2
_chemical_formula_sum  Sr2I4
_cell_volume  289.60407564439186
_cell_formula_units_Z  2
loop_
  _symmetry_equiv_pos_site_id
 _symmetry_equiv_pos_as_xyz
 1  'x, y, z'
loop_
 _atom_site_type_symbol
 _atom_site_label
 _atom_site_symmetry_multiplicity
 _atom_site_fract_x
 _atom_site_fract_y
 _atom_site_fract_z
 _atom_site_fract_occupancy
 I  I1  1  0.30097  0.30097  0.00000  1
 I  I2  1  0.69903  0.69903  0.00000  1
 I  I3  1  0.19903  0.80097  0.50000  1
 I  I4  1  0.80097  0.19903  0.50000  1
 Sr  Sr1  1  0.00000  0.00000  0.00000  1
 Sr  Sr2  1  0.50000  0.50000  0.50000  1
