CIF file written using JARVIS-Tools package.
data_TlGaS2
_symmetry_space_group_name_H-M  'C2/c'
_cell_length_a       7.34483
_cell_length_b       7.34483
_cell_length_c       15.2475
_cell_angle_alpha    83.0067
_cell_angle_beta     83.0067
_cell_angle_gamma    90.0002

_symmetry_Int_Tables_number  15
_chemical_formula_structural  TlGaS2
_chemical_formula_sum  Tl8Ga8S6
_cell_volume  810.2635991454099
_cell_formula_units_Z  8
loop_
  _symmetry_equiv_pos_site_id
 _symmetry_equiv_pos_as_xyz
 1  'x, y, z'
loop_
 _atom_site_type_symbol
 _atom_site_label
 _atom_site_symmetry_multiplicity
 _atom_site_fract_x
 _atom_site_fract_y
 _atom_site_fract_z
 _atom_site_fract_occupancy
 Ga  Ga1  1  0.58624  0.20936  0.16319  1
 Ga  Ga2  1  0.79038  0.91832  0.33790  1
 Ga  Ga3  1  0.91832  0.79038  0.83790  1
 Ga  Ga4  1  0.20962  0.08168  0.66210  1
 Ga  Ga5  1  0.20936  0.58624  0.66319  1
 Ga  Ga6  1  0.41376  0.79064  0.83681  1
 Ga  Ga7  1  0.08168  0.20962  0.16210  1
 Ga  Ga8  1  0.79064  0.41376  0.33681  1
 S  S1  1  0.93046  0.55399  0.75129  1
 S  S2  1  0.23049  0.35769  0.57189  1
 S  S3  1  0.55399  0.93046  0.25129  1
 S  S4  1  0.06954  0.44601  0.24871  1
 S  S5  1  0.76850  0.14330  0.43064  1
 S  S6  1  0.85670  0.23150  0.06936  1
 S  S7  1  0.23150  0.85670  0.56936  1
 S  S8  1  0.76951  0.64231  0.42811  1
 S  S9  1  0.35769  0.23049  0.07189  1
 S  S10  1  0.44601  0.06954  0.74871  1
 S  S11  1  0.93060  0.06940  0.75000  1
 S  S12  1  0.64231  0.76951  0.92811  1
 S  S13  1  0.44551  0.55449  0.75000  1
 S  S14  1  0.14330  0.76850  0.93064  1
 S  S15  1  0.06940  0.93060  0.25000  1
 S  S16  1  0.55449  0.44551  0.25000  1
 Tl  Tl1  1  0.72528  0.34854  0.60910  1
 Tl  Tl2  1  0.15440  0.27678  0.88570  1
 Tl  Tl3  1  0.72322  0.84560  0.61430  1
 Tl  Tl4  1  0.84560  0.72322  0.11430  1
 Tl  Tl5  1  0.27678  0.15440  0.38570  1
 Tl  Tl6  1  0.27472  0.65146  0.39090  1
 Tl  Tl7  1  0.34854  0.72528  0.10910  1
 Tl  Tl8  1  0.65146  0.27472  0.89090  1
