CIF file written using JARVIS-Tools package.
data_LiAl5O8
_symmetry_space_group_name_H-M  'P4_332'
_cell_length_a       7.97439
_cell_length_b       7.97439
_cell_length_c       7.97439
_cell_angle_alpha    90
_cell_angle_beta     90
_cell_angle_gamma    90

_symmetry_Int_Tables_number  212
_chemical_formula_structural  LiAl5O8
_chemical_formula_sum  Li4Al20O32
_cell_volume  507.09776570887993
_cell_formula_units_Z  4
loop_
  _symmetry_equiv_pos_site_id
 _symmetry_equiv_pos_as_xyz
 1  'x, y, z'
loop_
 _atom_site_type_symbol
 _atom_site_label
 _atom_site_symmetry_multiplicity
 _atom_site_fract_x
 _atom_site_fract_y
 _atom_site_fract_z
 _atom_site_fract_occupancy
 Al  Al1  1  0.12500  0.36855  0.88145  1
 Al  Al2  1  0.24777  0.74777  0.75223  1
 Al  Al3  1  0.25223  0.25223  0.25223  1
 Al  Al4  1  0.36855  0.88145  0.12500  1
 Al  Al5  1  0.37500  0.63145  0.38145  1
 Al  Al6  1  0.74777  0.75223  0.24777  1
 Al  Al7  1  0.49777  0.50223  0.00223  1
 Al  Al8  1  0.50223  0.00223  0.49777  1
 Al  Al9  1  0.61855  0.87500  0.86855  1
 Al  Al10  1  0.62500  0.13145  0.11855  1
 Al  Al11  1  0.63145  0.38145  0.37500  1
 Al  Al12  1  0.75223  0.24777  0.74777  1
 Al  Al13  1  0.86855  0.61855  0.87500  1
 Al  Al14  1  0.87500  0.86855  0.61855  1
 Al  Al15  1  0.88145  0.12500  0.36855  1
 Al  Al16  1  0.00223  0.49777  0.50223  1
 Al  Al17  1  0.99777  0.99777  0.99777  1
 Al  Al18  1  0.38145  0.37500  0.63145  1
 Al  Al19  1  0.13145  0.11855  0.62500  1
 Al  Al20  1  0.11855  0.62500  0.13145  1
 Li  Li1  1  0.12500  0.87500  0.37500  1
 Li  Li2  1  0.87500  0.37500  0.12500  1
 Li  Li3  1  0.62500  0.62500  0.62500  1
 Li  Li4  1  0.37500  0.12500  0.87500  1
 O  O1  1  0.36458  0.63542  0.13542  1
 O  O2  1  0.13487  0.86528  0.11781  1
 O  O3  1  0.13219  0.38472  0.11513  1
 O  O4  1  0.11781  0.13487  0.86528  1
 O  O5  1  0.11528  0.88487  0.63219  1
 O  O6  1  0.11513  0.13219  0.38472  1
 O  O7  1  0.88487  0.63219  0.11528  1
 O  O8  1  0.36513  0.13472  0.61781  1
 O  O9  1  0.86781  0.88472  0.38487  1
 O  O10  1  0.13472  0.61781  0.36513  1
 O  O11  1  0.86458  0.86458  0.86458  1
 O  O12  1  0.61528  0.61513  0.36781  1
 O  O13  1  0.61458  0.88542  0.11458  1
 O  O14  1  0.11458  0.61458  0.88542  1
 O  O15  1  0.86528  0.11781  0.13487  1
 O  O16  1  0.61513  0.36781  0.61528  1
 O  O17  1  0.63472  0.88219  0.63487  1
 O  O18  1  0.38219  0.86513  0.36528  1
 O  O19  1  0.88542  0.11458  0.61458  1
 O  O20  1  0.88472  0.38487  0.86781  1
 O  O21  1  0.86513  0.36528  0.38219  1
 O  O22  1  0.63542  0.13542  0.36458  1
 O  O23  1  0.63487  0.63472  0.88219  1
 O  O24  1  0.88219  0.63487  0.63472  1
 O  O25  1  0.63219  0.11528  0.88487  1
 O  O26  1  0.61781  0.36513  0.13472  1
 O  O27  1  0.36528  0.38219  0.86513  1
 O  O28  1  0.38542  0.38542  0.38542  1
 O  O29  1  0.38487  0.86781  0.88472  1
 O  O30  1  0.38472  0.11513  0.13219  1
 O  O31  1  0.36781  0.61528  0.61513  1
 O  O32  1  0.13542  0.36458  0.63542  1
