CIF file written using JARVIS-Tools package.
data_LiDyO2
_symmetry_space_group_name_H-M  'Pnma'
_cell_length_a       3.38122
_cell_length_b       5.2805
_cell_length_c       11.1976
_cell_angle_alpha    90
_cell_angle_beta     90
_cell_angle_gamma    90

_symmetry_Int_Tables_number  62
_chemical_formula_structural  LiDyO2
_chemical_formula_sum  Li4Dy4O8
_cell_volume  199.92833879157385
_cell_formula_units_Z  4
loop_
  _symmetry_equiv_pos_site_id
 _symmetry_equiv_pos_as_xyz
 1  'x, y, z'
loop_
 _atom_site_type_symbol
 _atom_site_label
 _atom_site_symmetry_multiplicity
 _atom_site_fract_x
 _atom_site_fract_y
 _atom_site_fract_z
 _atom_site_fract_occupancy
 Dy  Dy1  1  0.25000  0.04554  0.35976  1
 Dy  Dy2  1  0.25000  0.45446  0.85976  1
 Dy  Dy3  1  0.75000  0.54554  0.14024  1
 Dy  Dy4  1  0.75000  0.95446  0.64024  1
 Li  Li1  1  0.25000  0.09567  0.06633  1
 Li  Li2  1  0.25000  0.40433  0.56633  1
 Li  Li3  1  0.75000  0.59567  0.43367  1
 Li  Li4  1  0.75000  0.90433  0.93367  1
 O  O1  1  0.25000  0.19622  0.70437  1
 O  O2  1  0.75000  0.24306  0.47313  1
 O  O3  1  0.75000  0.25694  0.97313  1
 O  O4  1  0.25000  0.30378  0.20437  1
 O  O5  1  0.75000  0.69622  0.79563  1
 O  O6  1  0.25000  0.74306  0.02687  1
 O  O7  1  0.25000  0.75694  0.52687  1
 O  O8  1  0.75000  0.80378  0.29563  1
