CIF file written using JARVIS-Tools package.
data_InPbCl3
_symmetry_space_group_name_H-M  'R3'
_cell_length_a       5.66822
_cell_length_b       5.66839
_cell_length_c       5.66832
_cell_angle_alpha    89.7961
_cell_angle_beta     89.7872
_cell_angle_gamma    90.2261

_symmetry_Int_Tables_number  146
_chemical_formula_structural  InPbCl3
_chemical_formula_sum  InPbCl3
_cell_volume  182.1176036992865
_cell_formula_units_Z  1
loop_
  _symmetry_equiv_pos_site_id
 _symmetry_equiv_pos_as_xyz
 1  'x, y, z'
loop_
 _atom_site_type_symbol
 _atom_site_label
 _atom_site_symmetry_multiplicity
 _atom_site_fract_x
 _atom_site_fract_y
 _atom_site_fract_z
 _atom_site_fract_occupancy
 Cl  Cl1  1  0.55750  -0.00090  0.45817  1
 Cl  Cl2  1  0.01106  0.54394  0.45650  1
 Cl  Cl3  1  0.55594  0.54537  0.00287  1
 In  In1  1  0.92785  0.91588  0.08618  1
 Pb  Pb1  1  0.50765  0.49572  0.50628  1
