CIF file written using JARVIS-Tools package.
data_La2AlGe3
_symmetry_space_group_name_H-M  'Imm2'
_cell_length_a       8.06567
_cell_length_b       8.06567
_cell_length_c       8.06566
_cell_angle_alpha    148.886
_cell_angle_beta     147.677
_cell_angle_gamma    45.4776

_symmetry_Int_Tables_number  44
_chemical_formula_structural  La2AlGe3
_chemical_formula_sum  La2AlGe3
_cell_volume  144.5034809685849
_cell_formula_units_Z  1
loop_
  _symmetry_equiv_pos_site_id
 _symmetry_equiv_pos_as_xyz
 1  'x, y, z'
loop_
 _atom_site_type_symbol
 _atom_site_label
 _atom_site_symmetry_multiplicity
 _atom_site_fract_x
 _atom_site_fract_y
 _atom_site_fract_z
 _atom_site_fract_occupancy
 Al  Al1  1  0.29185  0.79185  0.50000  1
 Ge  Ge1  1  0.04095  0.04095  0.00000  1
 Ge  Ge2  1  0.20968  0.20968  -0.00000  1
 Ge  Ge3  1  0.45754  0.95754  0.50000  1
 La  La1  1  0.62149  0.62149  0.00000  1
 La  La2  1  0.87849  0.37849  0.50000  1
