CIF file written using JARVIS-Tools package.
data_MgH12SeO9
_symmetry_space_group_name_H-M  'R3'
_cell_length_a       5.92694
_cell_length_b       5.92694
_cell_length_c       5.92694
_cell_angle_alpha    98.2614
_cell_angle_beta     98.2614
_cell_angle_gamma    98.2614

_symmetry_Int_Tables_number  146
_chemical_formula_structural  MgH12SeO9
_chemical_formula_sum  MgH2SeO9
_cell_volume  201.0146033621934
_cell_formula_units_Z  1
loop_
  _symmetry_equiv_pos_site_id
 _symmetry_equiv_pos_as_xyz
 1  'x, y, z'
loop_
 _atom_site_type_symbol
 _atom_site_label
 _atom_site_symmetry_multiplicity
 _atom_site_fract_x
 _atom_site_fract_y
 _atom_site_fract_z
 _atom_site_fract_occupancy
 H  H1  1  0.53627  0.95438  0.02764  1
 H  H2  1  0.38220  0.18932  0.81558  1
 H  H3  1  0.28402  0.08512  0.42129  1
 H  H4  1  0.08512  0.42129  0.28402  1
 H  H5  1  0.42129  0.28402  0.08512  1
 H  H6  1  0.74081  0.13646  0.63026  1
 H  H7  1  0.13646  0.63026  0.74081  1
 H  H8  1  0.63026  0.74081  0.13646  1
 H  H9  1  0.95438  0.02764  0.53627  1
 H  H10  1  0.02764  0.53627  0.95438  1
 H  H11  1  0.81558  0.38220  0.18932  1
 H  H12  1  0.18932  0.81558  0.38220  1
 Mg  Mg1  1  -0.00009  -0.00009  -0.00009  1
 O  O1  1  0.96421  0.33953  0.14657  1
 O  O2  1  0.33953  0.14657  0.96421  1
 O  O3  1  0.87493  0.05621  0.67183  1
 O  O4  1  0.05621  0.67183  0.87493  1
 O  O5  1  0.67183  0.87493  0.05621  1
 O  O6  1  0.50159  0.25719  0.58785  1
 O  O7  1  0.25719  0.58785  0.50159  1
 O  O8  1  0.58785  0.50159  0.25719  1
 O  O9  1  0.14657  0.96421  0.33953  1
 Se  Se1  1  0.54201  0.54201  0.54201  1
