CIF file written using JARVIS-Tools package.
data_SiP
_symmetry_space_group_name_H-M  'Cmc2_1'
_cell_length_a       3.55255
_cell_length_b       10.5291
_cell_length_c       13.7504
_cell_angle_alpha    90
_cell_angle_beta     90
_cell_angle_gamma    99.7124

_symmetry_Int_Tables_number  36
_chemical_formula_structural  SiP
_chemical_formula_sum  Si2P2
_cell_volume  506.9619368297544
_cell_formula_units_Z  12
loop_
  _symmetry_equiv_pos_site_id
 _symmetry_equiv_pos_as_xyz
 1  'x, y, z'
loop_
 _atom_site_type_symbol
 _atom_site_label
 _atom_site_symmetry_multiplicity
 _atom_site_fract_x
 _atom_site_fract_y
 _atom_site_fract_z
 _atom_site_fract_occupancy
 P  P1  1  0.11347  0.22694  0.43039  1
 P  P2  1  0.88653  0.77306  0.93039  1
 P  P3  1  0.00016  0.00031  0.63711  1
 P  P4  1  -0.00016  -0.00031  0.13711  1
 P  P5  1  0.23147  0.46294  0.87983  1
 P  P6  1  0.76853  0.53706  0.37983  1
 P  P7  1  0.65512  0.31024  0.08678  1
 P  P8  1  0.54137  0.08274  0.88252  1
 P  P9  1  0.45863  0.91726  0.38252  1
 P  P10  1  0.68997  0.37995  0.63484  1
 P  P11  1  0.31003  0.62005  0.13484  1
 P  P12  1  0.34488  0.68976  0.58678  1
 Si  Si1  1  0.17107  0.34213  0.73748  1
 Si  Si2  1  0.06046  0.12093  0.77985  1
 Si  Si3  1  0.93954  0.87907  0.27985  1
 Si  Si4  1  0.43606  0.87212  0.68012  1
 Si  Si5  1  0.20162  0.40324  0.16515  1
 Si  Si6  1  0.43303  0.86606  0.85201  1
 Si  Si7  1  0.56697  0.13394  0.35201  1
 Si  Si8  1  0.79542  0.59084  0.83687  1
 Si  Si9  1  0.20458  0.40916  0.33687  1
 Si  Si10  1  0.79838  0.59676  0.66515  1
 Si  Si11  1  0.82893  0.65787  0.23748  1
 Si  Si12  1  0.56394  0.12788  0.18012  1
