CIF file written using JARVIS-Tools package.
data_Co2NiO4
_symmetry_space_group_name_H-M  'Imma'
_cell_length_a       5.74576
_cell_length_b       5.73514
_cell_length_c       5.74576
_cell_angle_alpha    60.0611
_cell_angle_beta     59.8962
_cell_angle_gamma    60.0612

_symmetry_Int_Tables_number  74
_chemical_formula_structural  Co2NiO4
_chemical_formula_sum  Co4Ni2O8
_cell_volume  133.90016239157157
_cell_formula_units_Z  2
loop_
  _symmetry_equiv_pos_site_id
 _symmetry_equiv_pos_as_xyz
 1  'x, y, z'
loop_
 _atom_site_type_symbol
 _atom_site_label
 _atom_site_symmetry_multiplicity
 _atom_site_fract_x
 _atom_site_fract_y
 _atom_site_fract_z
 _atom_site_fract_occupancy
 Co  Co1  1  0.12951  0.12049  0.12951  1
 Co  Co2  1  0.50000  0.00000  0.50000  1
 Co  Co3  1  0.50000  0.50000  0.50000  1
 Co  Co4  1  0.87049  0.87951  0.87049  1
 Ni  Ni1  1  -0.00000  0.50000  0.50000  1
 Ni  Ni2  1  0.50000  0.50000  0.00000  1
 O  O1  1  0.26408  0.25161  0.26408  1
 O  O2  1  0.26724  0.25682  0.71912  1
 O  O3  1  0.26408  0.72023  0.26408  1
 O  O4  1  0.71912  0.25682  0.26724  1
 O  O5  1  0.28088  0.74318  0.73276  1
 O  O6  1  0.73592  0.27977  0.73592  1
 O  O7  1  0.73276  0.74318  0.28088  1
 O  O8  1  0.73592  0.74839  0.73592  1
