CIF file written using JARVIS-Tools package.
data_LiV2O3F3
_symmetry_space_group_name_H-M  'P1'
_cell_length_a       4.99222
_cell_length_b       4.99546
_cell_length_c       5.21907
_cell_angle_alpha    92.3367
_cell_angle_beta     116.495
_cell_angle_gamma    117.732

_symmetry_Int_Tables_number  1
_chemical_formula_structural  LiV2O3F3
_chemical_formula_sum  LiV2O3F3
_cell_volume  97.90728230364579
_cell_formula_units_Z  1
loop_
  _symmetry_equiv_pos_site_id
 _symmetry_equiv_pos_as_xyz
 1  'x, y, z'
loop_
 _atom_site_type_symbol
 _atom_site_label
 _atom_site_symmetry_multiplicity
 _atom_site_fract_x
 _atom_site_fract_y
 _atom_site_fract_z
 _atom_site_fract_occupancy
 F  F1  1  0.15319  0.76490  0.26432  1
 F  F2  1  0.50147  0.38686  0.23729  1
 F  F3  1  0.50043  0.63632  0.75578  1
 Li  Li1  1  0.58321  0.80331  0.34384  1
 O  O1  1  0.06662  0.83260  0.73563  1
 O  O2  1  0.89826  0.25042  0.74954  1
 O  O3  1  0.90014  0.14688  0.25450  1
 V  V1  1  0.99445  0.48841  0.52292  1
 V  V2  1  -0.00882  0.01989  -0.01147  1
