CIF file written using JARVIS-Tools package.
data_IrF6
_symmetry_space_group_name_H-M  'Pnma'
_cell_length_a       4.9408
_cell_length_b       8.52702
_cell_length_c       9.31586
_cell_angle_alpha    90
_cell_angle_beta     90
_cell_angle_gamma    90

_symmetry_Int_Tables_number  62
_chemical_formula_structural  IrF6
_chemical_formula_sum  Ir4F24
_cell_volume  392.47973444947604
_cell_formula_units_Z  4
loop_
  _symmetry_equiv_pos_site_id
 _symmetry_equiv_pos_as_xyz
 1  'x, y, z'
loop_
 _atom_site_type_symbol
 _atom_site_label
 _atom_site_symmetry_multiplicity
 _atom_site_fract_x
 _atom_site_fract_y
 _atom_site_fract_z
 _atom_site_fract_occupancy
 F  F1  1  0.71749  0.75000  0.99227  1
 F  F2  1  0.24804  0.59442  0.48831  1
 F  F3  1  0.25196  0.90558  0.98831  1
 F  F4  1  0.93111  0.90550  0.25797  1
 F  F5  1  0.21749  0.25000  0.50773  1
 F  F6  1  0.74804  0.09442  0.01169  1
 F  F7  1  0.56889  0.90550  0.75797  1
 F  F8  1  0.28251  0.25000  0.00773  1
 F  F9  1  0.24804  0.90558  0.48831  1
 F  F10  1  0.75196  0.40558  0.51169  1
 F  F11  1  0.39688  0.75000  0.25480  1
 F  F12  1  0.43111  0.40550  0.24203  1
 F  F13  1  0.78251  0.75000  0.49227  1
 F  F14  1  0.75196  0.09442  0.51169  1
 F  F15  1  0.25196  0.59442  0.98831  1
 F  F16  1  0.43111  0.09450  0.24203  1
 F  F17  1  0.06889  0.40550  0.74203  1
 F  F18  1  0.60312  0.25000  0.74520  1
 F  F19  1  0.56889  0.59450  0.75797  1
 F  F20  1  0.89688  0.25000  0.24520  1
 F  F21  1  0.10312  0.75000  0.75480  1
 F  F22  1  0.06889  0.09450  0.74203  1
 F  F23  1  0.93111  0.59450  0.25797  1
 F  F24  1  0.74804  0.40558  0.01169  1
 Ir  Ir1  1  0.08906  0.75000  0.37325  1
 Ir  Ir2  1  0.41094  0.75000  0.87325  1
 Ir  Ir3  1  0.91094  0.25000  0.62675  1
 Ir  Ir4  1  0.58906  0.25000  0.12675  1
