CIF file written using JARVIS-Tools package.
data_YbRbBr3
_symmetry_space_group_name_H-M  'Pnma'
_cell_length_a       7.6455
_cell_length_b       7.9637
_cell_length_c       11.0869
_cell_angle_alpha    90
_cell_angle_beta     90
_cell_angle_gamma    90

_symmetry_Int_Tables_number  62
_chemical_formula_structural  YbRbBr3
_chemical_formula_sum  Yb4Rb4Br2
_cell_volume  675.0412870887264
_cell_formula_units_Z  4
loop_
  _symmetry_equiv_pos_site_id
 _symmetry_equiv_pos_as_xyz
 1  'x, y, z'
loop_
 _atom_site_type_symbol
 _atom_site_label
 _atom_site_symmetry_multiplicity
 _atom_site_fract_x
 _atom_site_fract_y
 _atom_site_fract_z
 _atom_site_fract_occupancy
 Br  Br1  1  0.69653  0.70048  0.46004  1
 Br  Br2  1  0.30347  0.29952  0.96004  1
 Br  Br3  1  0.30347  0.29952  0.53996  1
 Br  Br4  1  0.57942  0.98904  0.75000  1
 Br  Br5  1  0.07942  0.51096  0.25000  1
 Br  Br6  1  0.42058  0.01096  0.25000  1
 Br  Br7  1  0.80347  0.20048  0.03996  1
 Br  Br8  1  0.92058  0.48904  0.75000  1
 Br  Br9  1  0.19653  0.79952  0.53996  1
 Br  Br10  1  0.19653  0.79952  0.96004  1
 Br  Br11  1  0.80347  0.20048  0.46004  1
 Br  Br12  1  0.69653  0.70048  0.03996  1
 Rb  Rb1  1  0.02059  0.06595  0.75000  1
 Rb  Rb2  1  0.97941  0.93405  0.25000  1
 Rb  Rb3  1  0.52059  0.43405  0.25000  1
 Rb  Rb4  1  0.47941  0.56595  0.75000  1
 Yb  Yb1  1  0.00000  0.50000  0.00000  1
 Yb  Yb2  1  0.00000  0.50000  0.50000  1
 Yb  Yb3  1  0.50000  0.00000  0.00000  1
 Yb  Yb4  1  0.50000  0.00000  0.50000  1
