CIF file written using JARVIS-Tools package.
data_SmAlZn
_symmetry_space_group_name_H-M  'C2/m'
_cell_length_a       5.74512
_cell_length_b       5.74512
_cell_length_c       7.36419
_cell_angle_alpha    51.2839
_cell_angle_beta     51.2839
_cell_angle_gamma    46.3242

_symmetry_Int_Tables_number  12
_chemical_formula_structural  SmAlZn
_chemical_formula_sum  Sm2Al2Zn2
_cell_volume  128.8498208326189
_cell_formula_units_Z  2
loop_
  _symmetry_equiv_pos_site_id
 _symmetry_equiv_pos_as_xyz
 1  'x, y, z'
loop_
 _atom_site_type_symbol
 _atom_site_label
 _atom_site_symmetry_multiplicity
 _atom_site_fract_x
 _atom_site_fract_y
 _atom_site_fract_z
 _atom_site_fract_occupancy
 Al  Al1  1  0.16395  0.16395  0.38223  1
 Al  Al2  1  0.83605  0.83605  0.61777  1
 Sm  Sm1  1  0.53350  0.53350  0.21173  1
 Sm  Sm2  1  0.46650  0.46650  0.78827  1
 Zn  Zn1  1  0.83510  0.83510  0.21291  1
 Zn  Zn2  1  0.16490  0.16490  0.78709  1
