CIF file written using JARVIS-Tools package.
data_HoMnGa
_symmetry_space_group_name_H-M  'P-62m'
_cell_length_a       7.4068
_cell_length_b       7.4068
_cell_length_c       3.48929
_cell_angle_alpha    90
_cell_angle_beta     90
_cell_angle_gamma    120

_symmetry_Int_Tables_number  189
_chemical_formula_structural  HoMnGa
_chemical_formula_sum  Ho3Mn3Ga3
_cell_volume  165.77941097693514
_cell_formula_units_Z  3
loop_
  _symmetry_equiv_pos_site_id
 _symmetry_equiv_pos_as_xyz
 1  'x, y, z'
loop_
 _atom_site_type_symbol
 _atom_site_label
 _atom_site_symmetry_multiplicity
 _atom_site_fract_x
 _atom_site_fract_y
 _atom_site_fract_z
 _atom_site_fract_occupancy
 Ga  Ga1  1  0.73065  -0.00000  0.00000  1
 Ga  Ga2  1  0.26935  0.26935  0.00000  1
 Ga  Ga3  1  -0.00000  0.73065  0.00000  1
 Ho  Ho1  1  -0.00000  0.38497  0.50000  1
 Ho  Ho2  1  0.61503  0.61503  0.50000  1
 Ho  Ho3  1  0.38497  -0.00000  0.50000  1
 Mn  Mn1  1  0.66667  0.33333  0.00000  1
 Mn  Mn2  1  0.33333  0.66667  0.00000  1
 Mn  Mn3  1  0.00000  0.00000  0.50000  1
