CIF file written using JARVIS-Tools package.
data_Li2TiO3
_symmetry_space_group_name_H-M  'Immm'
_cell_length_a       5.10389
_cell_length_b       5.1039
_cell_length_c       5.1039
_cell_angle_alpha    146.647
_cell_angle_beta     134.231
_cell_angle_gamma    57.801

_symmetry_Int_Tables_number  71
_chemical_formula_structural  Li2TiO3
_chemical_formula_sum  Li2TiO3
_cell_volume  51.956045238835664
_cell_formula_units_Z  1
loop_
  _symmetry_equiv_pos_site_id
 _symmetry_equiv_pos_as_xyz
 1  'x, y, z'
loop_
 _atom_site_type_symbol
 _atom_site_label
 _atom_site_symmetry_multiplicity
 _atom_site_fract_x
 _atom_site_fract_y
 _atom_site_fract_z
 _atom_site_fract_occupancy
 Li  Li1  1  0.67128  0.67128  -0.00000  1
 Li  Li2  1  0.32872  0.32872  -0.00000  1
 O  O1  1  0.50000  0.00000  0.50000  1
 O  O2  1  0.14944  0.64944  0.50000  1
 O  O3  1  0.85056  0.35056  0.50000  1
 Ti  Ti1  1  0.00000  0.00000  0.00000  1
