CIF file written using JARVIS-Tools package.
data_KCrF3
_symmetry_space_group_name_H-M  'I4/mcm'
_cell_length_a       5.87441
_cell_length_b       5.87417
_cell_length_c       5.87726
_cell_angle_alpha    119.973
_cell_angle_beta     119.974
_cell_angle_gamma    90.0168

_symmetry_Int_Tables_number  140
_chemical_formula_structural  KCrF3
_chemical_formula_sum  K2Cr2F6
_cell_volume  143.5005790885365
_cell_formula_units_Z  2
loop_
  _symmetry_equiv_pos_site_id
 _symmetry_equiv_pos_as_xyz
 1  'x, y, z'
loop_
 _atom_site_type_symbol
 _atom_site_label
 _atom_site_symmetry_multiplicity
 _atom_site_fract_x
 _atom_site_fract_y
 _atom_site_fract_z
 _atom_site_fract_occupancy
 Cr  Cr1  1  0.00000  0.50000  0.00000  1
 Cr  Cr2  1  0.50000  -0.00000  0.00000  1
 F  F1  1  0.25000  0.75000  0.50000  1
 F  F2  1  0.73976  0.26020  -0.00000  1
 F  F3  1  0.26024  0.73980  0.00000  1
 F  F4  1  0.23977  0.23980  0.00000  1
 F  F5  1  0.75000  0.25000  0.50000  1
 F  F6  1  0.76023  0.76020  -0.00000  1
 K  K1  1  0.75004  0.75004  0.50009  1
 K  K2  1  0.24996  0.24996  0.49991  1
