CIF file written using JARVIS-Tools package.
data_YbAlCu5
_symmetry_space_group_name_H-M  'I-4m2'
_cell_length_a       5.11084
_cell_length_b       5.11083
_cell_length_c       5.11084
_cell_angle_alpha    103.167
_cell_angle_beta     103.167
_cell_angle_gamma    122.985

_symmetry_Int_Tables_number  119
_chemical_formula_structural  YbAlCu5
_chemical_formula_sum  YbAlCu5
_cell_volume  98.40298875378458
_cell_formula_units_Z  1
loop_
  _symmetry_equiv_pos_site_id
 _symmetry_equiv_pos_as_xyz
 1  'x, y, z'
loop_
 _atom_site_type_symbol
 _atom_site_label
 _atom_site_symmetry_multiplicity
 _atom_site_fract_x
 _atom_site_fract_y
 _atom_site_fract_z
 _atom_site_fract_occupancy
 Al  Al1  1  0.25000  0.75000  0.50000  1
 Cu  Cu1  1  0.69388  0.30612  0.00000  1
 Cu  Cu2  1  0.30612  0.69388  0.00000  1
 Cu  Cu3  1  0.30612  0.30612  0.61224  1
 Cu  Cu4  1  0.69388  0.69388  0.38776  1
 Cu  Cu5  1  0.75000  0.25000  0.50000  1
 Yb  Yb1  1  0.00000  0.00000  0.00000  1
