CIF file written using JARVIS-Tools package.
data_ThPt
_symmetry_space_group_name_H-M  'Cmcm'
_cell_length_a       3.94713
_cell_length_b       4.48929
_cell_length_c       5.97273
_cell_angle_alpha    90
_cell_angle_beta     109.295
_cell_angle_gamma    90

_symmetry_Int_Tables_number  63
_chemical_formula_structural  ThPt
_chemical_formula_sum  Th2Pt2
_cell_volume  99.89080227072226
_cell_formula_units_Z  2
loop_
  _symmetry_equiv_pos_site_id
 _symmetry_equiv_pos_as_xyz
 1  'x, y, z'
loop_
 _atom_site_type_symbol
 _atom_site_label
 _atom_site_symmetry_multiplicity
 _atom_site_fract_x
 _atom_site_fract_y
 _atom_site_fract_z
 _atom_site_fract_occupancy
 Pt  Pt1  1  0.40323  0.75000  0.80646  1
 Pt  Pt2  1  0.59677  0.25000  0.19354  1
 Th  Th1  1  0.13636  0.75000  0.27271  1
 Th  Th2  1  0.86364  0.25000  0.72729  1
