CIF file written using JARVIS-Tools package.
data_Li4MnB2O6
_symmetry_space_group_name_H-M  'Pnnm'
_cell_length_a       3.29196
_cell_length_b       7.93663
_cell_length_c       9.29377
_cell_angle_alpha    90
_cell_angle_beta     90
_cell_angle_gamma    90

_symmetry_Int_Tables_number  58
_chemical_formula_structural  Li4MnB2O6
_chemical_formula_sum  Li8Mn2B4O2
_cell_volume  242.81927541952814
_cell_formula_units_Z  2
loop_
  _symmetry_equiv_pos_site_id
 _symmetry_equiv_pos_as_xyz
 1  'x, y, z'
loop_
 _atom_site_type_symbol
 _atom_site_label
 _atom_site_symmetry_multiplicity
 _atom_site_fract_x
 _atom_site_fract_y
 _atom_site_fract_z
 _atom_site_fract_occupancy
 B  B1  1  0.50000  0.23478  0.79787  1
 B  B2  1  0.00000  0.73478  0.70213  1
 B  B3  1  0.00000  0.26522  0.29787  1
 B  B4  1  0.50000  0.76522  0.20213  1
 Li  Li1  1  0.50000  0.16793  0.05506  1
 Li  Li2  1  0.00000  0.00525  0.20253  1
 Li  Li3  1  0.50000  0.83207  0.94494  1
 Li  Li4  1  0.00000  0.66793  0.44494  1
 Li  Li5  1  0.00000  0.33207  0.55506  1
 Li  Li6  1  0.50000  0.49475  0.70253  1
 Li  Li7  1  0.00000  0.99475  0.79747  1
 Li  Li8  1  0.50000  0.50525  0.29747  1
 Mn  Mn1  1  0.00000  0.50000  0.00000  1
 Mn  Mn2  1  0.50000  0.00000  0.50000  1
 O  O1  1  0.00000  0.42007  0.36256  1
 O  O2  1  0.50000  0.74703  0.35057  1
 O  O3  1  0.00000  0.11901  0.38499  1
 O  O4  1  0.00000  0.88099  0.61501  1
 O  O5  1  0.50000  0.25297  0.64943  1
 O  O6  1  0.00000  0.75297  0.85057  1
 O  O7  1  0.50000  0.07993  0.86256  1
 O  O8  1  0.50000  0.38099  0.88499  1
 O  O9  1  0.00000  0.24703  0.14943  1
 O  O10  1  0.50000  0.92007  0.13744  1
 O  O11  1  0.00000  0.57993  0.63744  1
 O  O12  1  0.50000  0.61901  0.11501  1
