CIF file written using JARVIS-Tools package.
data_Rb2Sb4O11
_symmetry_space_group_name_H-M  'C2/m'
_cell_length_a       7.31019
_cell_length_b       7.67082
_cell_length_c       10.5858
_cell_angle_alpha    111.243
_cell_angle_beta     94.7196
_cell_angle_gamma    89.9999

_symmetry_Int_Tables_number  12
_chemical_formula_structural  Rb2Sb4O11
_chemical_formula_sum  Rb4Sb8O22
_cell_volume  551.1093231456853
_cell_formula_units_Z  2
loop_
  _symmetry_equiv_pos_site_id
 _symmetry_equiv_pos_as_xyz
 1  'x, y, z'
loop_
 _atom_site_type_symbol
 _atom_site_label
 _atom_site_symmetry_multiplicity
 _atom_site_fract_x
 _atom_site_fract_y
 _atom_site_fract_z
 _atom_site_fract_occupancy
 O  O1  1  0.64581  0.33994  0.67988  1
 O  O2  1  0.66721  0.52376  0.47174  1
 O  O3  1  0.13262  0.88109  0.76219  1
 O  O4  1  0.66721  0.94797  0.47174  1
 O  O5  1  0.56970  0.34365  0.17580  1
 O  O6  1  0.65495  0.97609  0.95217  1
 O  O7  1  0.35419  0.66006  0.32012  1
 O  O8  1  0.81286  0.06965  0.74110  1
 O  O9  1  0.00000  0.82839  0.00000  1
 O  O10  1  0.56970  0.83215  0.17580  1
 O  O11  1  0.50773  0.16645  0.33290  1
 O  O12  1  0.49227  0.83355  0.66710  1
 O  O13  1  0.18714  0.32856  0.25889  1
 O  O14  1  -0.00000  0.17161  -0.00000  1
 O  O15  1  0.33279  0.05203  0.52826  1
 O  O16  1  0.81286  0.67144  0.74111  1
 O  O17  1  0.86738  0.11891  0.23781  1
 O  O18  1  0.34505  0.02391  0.04783  1
 O  O19  1  0.33279  0.47624  0.52826  1
 O  O20  1  0.43030  0.16785  0.82420  1
 O  O21  1  0.43030  0.65635  0.82420  1
 O  O22  1  0.18714  0.93035  0.25890  1
 Rb  Rb1  1  0.00501  0.73344  0.46688  1
 Rb  Rb2  1  0.25453  0.50811  0.01623  1
 Rb  Rb3  1  0.99499  0.26656  0.53312  1
 Rb  Rb4  1  0.74547  0.49189  0.98377  1
 Sb  Sb1  1  0.61800  0.07569  0.15138  1
 Sb  Sb2  1  0.90270  0.92777  0.85554  1
 Sb  Sb3  1  0.43528  0.91667  0.34869  1
 Sb  Sb4  1  0.56472  0.08333  0.65131  1
 Sb  Sb5  1  0.09730  0.07223  0.14446  1
 Sb  Sb6  1  0.56473  0.56797  0.65131  1
 Sb  Sb7  1  0.43527  0.43203  0.34869  1
 Sb  Sb8  1  0.38200  0.92431  0.84862  1
