CIF file written using JARVIS-Tools package.
data_HfW2
_symmetry_space_group_name_H-M  'Fd-3m'
_cell_length_a       5.37793
_cell_length_b       5.37793
_cell_length_c       5.37793
_cell_angle_alpha    59.9999
_cell_angle_beta     59.9999
_cell_angle_gamma    60

_symmetry_Int_Tables_number  227
_chemical_formula_structural  HfW2
_chemical_formula_sum  Hf2W4
_cell_volume  109.98426677729029
_cell_formula_units_Z  2
loop_
  _symmetry_equiv_pos_site_id
 _symmetry_equiv_pos_as_xyz
 1  'x, y, z'
loop_
 _atom_site_type_symbol
 _atom_site_label
 _atom_site_symmetry_multiplicity
 _atom_site_fract_x
 _atom_site_fract_y
 _atom_site_fract_z
 _atom_site_fract_occupancy
 Hf  Hf1  1  0.87500  0.87500  0.87500  1
 Hf  Hf2  1  0.12500  0.12500  0.12500  1
 W  W1  1  0.50000  0.50000  0.50000  1
 W  W2  1  0.50000  0.50000  0.00000  1
 W  W3  1  0.00000  0.50000  0.50000  1
 W  W4  1  0.50000  0.00000  0.50000  1
