CIF file written using JARVIS-Tools package.
data_Sm2InAu2
_symmetry_space_group_name_H-M  'P4/mbm'
_cell_length_a       8.04313
_cell_length_b       8.04313
_cell_length_c       3.82708
_cell_angle_alpha    90
_cell_angle_beta     90
_cell_angle_gamma    90

_symmetry_Int_Tables_number  127
_chemical_formula_structural  Sm2InAu2
_chemical_formula_sum  Sm4In2Au4
_cell_volume  247.5810566034675
_cell_formula_units_Z  2
loop_
  _symmetry_equiv_pos_site_id
 _symmetry_equiv_pos_as_xyz
 1  'x, y, z'
loop_
 _atom_site_type_symbol
 _atom_site_label
 _atom_site_symmetry_multiplicity
 _atom_site_fract_x
 _atom_site_fract_y
 _atom_site_fract_z
 _atom_site_fract_occupancy
 Au  Au1  1  0.12807  0.62807  0.00000  1
 Au  Au2  1  0.87193  0.37193  0.00000  1
 Au  Au3  1  0.62807  0.87193  0.00000  1
 Au  Au4  1  0.37193  0.12807  0.00000  1
 In  In1  1  0.00000  0.00000  0.00000  1
 In  In2  1  0.50000  0.50000  0.00000  1
 Sm  Sm1  1  0.67120  0.17120  0.50000  1
 Sm  Sm2  1  0.32880  0.82880  0.50000  1
 Sm  Sm3  1  0.17120  0.32880  0.50000  1
 Sm  Sm4  1  0.82880  0.67120  0.50000  1
