CIF file written using JARVIS-Tools package.
data_MgH6C2O6
_symmetry_space_group_name_H-M  'Pbca'
_cell_length_a       7.19763
_cell_length_b       8.5079
_cell_length_c       8.73112
_cell_angle_alpha    90
_cell_angle_beta     90
_cell_angle_gamma    90

_symmetry_Int_Tables_number  61
_chemical_formula_structural  MgH6C2O6
_chemical_formula_sum  Mg4H24C8O24
_cell_volume  534.6651543824255
_cell_formula_units_Z  4
loop_
  _symmetry_equiv_pos_site_id
 _symmetry_equiv_pos_as_xyz
 1  'x, y, z'
loop_
 _atom_site_type_symbol
 _atom_site_label
 _atom_site_symmetry_multiplicity
 _atom_site_fract_x
 _atom_site_fract_y
 _atom_site_fract_z
 _atom_site_fract_occupancy
 C  C1  1  0.97961  0.73481  0.24089  1
 C  C2  1  0.47961  0.76519  0.24089  1
 C  C3  1  0.52039  0.23481  0.75911  1
 C  C4  1  0.97961  0.23481  0.25911  1
 C  C5  1  0.02039  0.26519  0.75911  1
 C  C6  1  0.02039  0.76519  0.74089  1
 C  C7  1  0.52039  0.73481  0.74089  1
 C  C8  1  0.47961  0.26519  0.25911  1
 H  H1  1  0.64287  0.12373  0.99482  1
 H  H2  1  0.84711  0.48454  0.87953  1
 H  H3  1  0.91761  0.31218  0.17057  1
 H  H4  1  0.15289  0.01546  0.37953  1
 H  H5  1  0.14287  0.87627  0.50518  1
 H  H6  1  0.58239  0.81218  0.82943  1
 H  H7  1  0.08239  0.68782  0.82943  1
 H  H8  1  0.41761  0.68782  0.32943  1
 H  H9  1  0.91761  0.81218  0.32943  1
 H  H10  1  0.35713  0.37627  0.49482  1
 H  H11  1  0.65289  0.98454  0.12047  1
 H  H12  1  0.85713  0.12373  0.49482  1
 H  H13  1  0.34711  0.01546  0.87953  1
 H  H14  1  0.65289  0.48454  0.37953  1
 H  H15  1  0.08239  0.18782  0.67057  1
 H  H16  1  0.58239  0.31218  0.67057  1
 H  H17  1  0.64287  0.62373  0.50518  1
 H  H18  1  0.85713  0.62373  0.00518  1
 H  H19  1  0.35713  0.87627  0.00518  1
 H  H20  1  0.15289  0.51546  0.12047  1
 H  H21  1  0.41761  0.18782  0.17057  1
 H  H22  1  0.84711  0.98454  0.62047  1
 H  H23  1  0.34711  0.51546  0.62047  1
 H  H24  1  0.14287  0.37627  0.99482  1
 Mg  Mg1  1  0.50000  0.50000  0.00000  1
 Mg  Mg2  1  0.50000  0.00000  0.50000  1
 Mg  Mg3  1  0.00000  0.00000  0.00000  1
 Mg  Mg4  1  0.00000  0.50000  0.50000  1
 O  O1  1  0.47859  0.71837  0.10279  1
 O  O2  1  0.04505  0.60315  0.28239  1
 O  O3  1  0.78136  0.53496  0.96726  1
 O  O4  1  0.71864  0.03496  0.03274  1
 O  O5  1  0.97859  0.28163  0.39721  1
 O  O6  1  0.54505  0.89685  0.28239  1
 O  O7  1  0.28136  0.96504  0.96726  1
 O  O8  1  0.21864  0.96504  0.46726  1
 O  O9  1  0.45495  0.10315  0.71761  1
 O  O10  1  0.04505  0.10315  0.21761  1
 O  O11  1  0.02141  0.71837  0.60279  1
 O  O12  1  0.54505  0.39685  0.21761  1
 O  O13  1  0.52141  0.78163  0.60279  1
 O  O14  1  0.02141  0.21837  0.89721  1
 O  O15  1  0.95495  0.89685  0.78239  1
 O  O16  1  0.95495  0.39685  0.71761  1
 O  O17  1  0.52141  0.28163  0.89721  1
 O  O18  1  0.71864  0.53496  0.46726  1
 O  O19  1  0.45495  0.60315  0.78239  1
 O  O20  1  0.21864  0.46504  0.03274  1
 O  O21  1  0.97859  0.78163  0.10279  1
 O  O22  1  0.47859  0.21837  0.39721  1
 O  O23  1  0.28136  0.46504  0.53274  1
 O  O24  1  0.78136  0.03496  0.53274  1
