CIF file written using JARVIS-Tools package.
data_K5Bi4
_symmetry_space_group_name_H-M  'Cm'
_cell_length_a       6.84445
_cell_length_b       6.84445
_cell_length_c       11.6238
_cell_angle_alpha    70.6345
_cell_angle_beta     70.6345
_cell_angle_gamma    48.0373

_symmetry_Int_Tables_number  8
_chemical_formula_structural  K5Bi4
_chemical_formula_sum  K5Bi4
_cell_volume  377.28286133997665
_cell_formula_units_Z  1
loop_
  _symmetry_equiv_pos_site_id
 _symmetry_equiv_pos_as_xyz
 1  'x, y, z'
loop_
 _atom_site_type_symbol
 _atom_site_label
 _atom_site_symmetry_multiplicity
 _atom_site_fract_x
 _atom_site_fract_y
 _atom_site_fract_z
 _atom_site_fract_occupancy
 Bi  Bi1  1  0.04852  0.04852  0.66886  1
 Bi  Bi2  1  0.95394  0.95394  0.33372  1
 Bi  Bi3  1  0.11558  0.11558  0.89321  1
 Bi  Bi4  1  0.88691  0.88691  0.10933  1
 K  K1  1  0.74770  0.74770  0.66745  1
 K  K2  1  0.25501  0.25501  0.33508  1
 K  K3  1  0.40856  0.40856  0.88768  1
 K  K4  1  0.59392  0.59392  0.11476  1
 K  K5  1  0.50186  0.50186  0.50091  1
