CIF file written using JARVIS-Tools package.
data_B2O3
_symmetry_space_group_name_H-M  'Cmc2_1'
_cell_length_a       4.15738
_cell_length_b       4.56057
_cell_length_c       4.56058
_cell_angle_alpha    118.898
_cell_angle_beta     90
_cell_angle_gamma    90

_symmetry_Int_Tables_number  36
_chemical_formula_structural  B2O3
_chemical_formula_sum  B4O6
_cell_volume  75.70149394472179
_cell_formula_units_Z  2
loop_
  _symmetry_equiv_pos_site_id
 _symmetry_equiv_pos_as_xyz
 1  'x, y, z'
loop_
 _atom_site_type_symbol
 _atom_site_label
 _atom_site_symmetry_multiplicity
 _atom_site_fract_x
 _atom_site_fract_y
 _atom_site_fract_z
 _atom_site_fract_occupancy
 B  B1  1  0.56758  0.32510  0.99518  1
 B  B2  1  0.06758  0.67490  0.00482  1
 B  B3  1  0.06758  0.00482  0.67490  1
 B  B4  1  0.56758  0.99518  0.32510  1
 O  O1  1  0.50107  0.24622  0.24622  1
 O  O2  1  0.00107  0.75378  0.75378  1
 O  O3  1  0.41818  0.66096  0.07892  1
 O  O4  1  0.91818  0.33904  0.92108  1
 O  O5  1  0.91818  0.92108  0.33904  1
 O  O6  1  0.41818  0.07892  0.66096  1
