CIF file written using JARVIS-Tools package.
data_KrF2
_symmetry_space_group_name_H-M  'P4_2/mnm'
_cell_length_a       4.57664
_cell_length_b       4.57664
_cell_length_c       5.74366
_cell_angle_alpha    90
_cell_angle_beta     90
_cell_angle_gamma    90

_symmetry_Int_Tables_number  136
_chemical_formula_structural  KrF2
_chemical_formula_sum  Kr2F4
_cell_volume  120.30458374828332
_cell_formula_units_Z  2
loop_
  _symmetry_equiv_pos_site_id
 _symmetry_equiv_pos_as_xyz
 1  'x, y, z'
loop_
 _atom_site_type_symbol
 _atom_site_label
 _atom_site_symmetry_multiplicity
 _atom_site_fract_x
 _atom_site_fract_y
 _atom_site_fract_z
 _atom_site_fract_occupancy
 F  F1  1  0.19933  0.80067  0.50000  1
 F  F2  1  0.30067  0.30067  0.00000  1
 F  F3  1  0.69933  0.69933  0.00000  1
 F  F4  1  0.80067  0.19933  0.50000  1
 Kr  Kr1  1  0.00000  0.00000  0.00000  1
 Kr  Kr2  1  0.50000  0.50000  0.50000  1
