CIF file written using JARVIS-Tools package.
data_LuMnO3
_symmetry_space_group_name_H-M  'Pnma'
_cell_length_a       5.17695
_cell_length_b       5.60839
_cell_length_c       7.47699
_cell_angle_alpha    90
_cell_angle_beta     90
_cell_angle_gamma    90

_symmetry_Int_Tables_number  62
_chemical_formula_structural  LuMnO3
_chemical_formula_sum  Lu4Mn4O2
_cell_volume  217.08991766977914
_cell_formula_units_Z  4
loop_
  _symmetry_equiv_pos_site_id
 _symmetry_equiv_pos_as_xyz
 1  'x, y, z'
loop_
 _atom_site_type_symbol
 _atom_site_label
 _atom_site_symmetry_multiplicity
 _atom_site_fract_x
 _atom_site_fract_y
 _atom_site_fract_z
 _atom_site_fract_occupancy
 Lu  Lu1  1  0.02219  0.92058  0.75000  1
 Lu  Lu2  1  0.52219  0.57942  0.25000  1
 Lu  Lu3  1  0.47781  0.42058  0.75000  1
 Lu  Lu4  1  0.97781  0.07942  0.25000  1
 Mn  Mn1  1  0.50000  0.00000  0.50000  1
 Mn  Mn2  1  0.00000  0.50000  0.50000  1
 Mn  Mn3  1  0.00000  0.50000  0.00000  1
 Mn  Mn4  1  0.50000  0.00000  0.00000  1
 O  O1  1  0.69163  0.31366  0.43883  1
 O  O2  1  0.87632  0.54464  0.75000  1
 O  O3  1  0.80837  0.81366  0.06117  1
 O  O4  1  0.30837  0.68634  0.93883  1
 O  O5  1  0.19163  0.18634  0.56117  1
 O  O6  1  0.12368  0.45536  0.25000  1
 O  O7  1  0.19163  0.18634  0.93883  1
 O  O8  1  0.69163  0.31366  0.06117  1
 O  O9  1  0.30837  0.68634  0.56117  1
 O  O10  1  0.62368  0.04464  0.75000  1
 O  O11  1  0.80837  0.81366  0.43883  1
 O  O12  1  0.37632  0.95536  0.25000  1
