CIF file written using JARVIS-Tools package.
data_VOF
_symmetry_space_group_name_H-M  'P2_1/c'
_cell_length_a       5.53001
_cell_length_b       4.6063
_cell_length_c       10.3693
_cell_angle_alpha    90
_cell_angle_beta     95.8954
_cell_angle_gamma    90

_symmetry_Int_Tables_number  14
_chemical_formula_structural  VOF
_chemical_formula_sum  V8O8F8
_cell_volume  262.73799460997805
_cell_formula_units_Z  8
loop_
  _symmetry_equiv_pos_site_id
 _symmetry_equiv_pos_as_xyz
 1  'x, y, z'
loop_
 _atom_site_type_symbol
 _atom_site_label
 _atom_site_symmetry_multiplicity
 _atom_site_fract_x
 _atom_site_fract_y
 _atom_site_fract_z
 _atom_site_fract_occupancy
 F  F1  1  0.89417  0.20011  0.29004  1
 F  F2  1  0.65035  0.30089  0.04356  1
 F  F3  1  0.89417  0.29989  0.79004  1
 F  F4  1  0.10583  0.70011  0.20996  1
 F  F5  1  0.34965  0.69911  0.95644  1
 F  F6  1  0.10583  0.79989  0.70996  1
 F  F7  1  0.34965  0.80089  0.45644  1
 F  F8  1  0.65035  0.19911  0.54356  1
 O  O1  1  0.60723  0.79922  0.19300  1
 O  O2  1  0.84742  0.79412  0.94411  1
 O  O3  1  0.60723  0.70078  0.69300  1
 O  O4  1  0.84742  0.70588  0.44411  1
 O  O5  1  0.39277  0.29922  0.30700  1
 O  O6  1  0.39277  0.20078  0.80700  1
 O  O7  1  0.15258  0.20588  0.05589  1
 O  O8  1  0.15258  0.29412  0.55589  1
 V  V1  1  0.12579  0.02385  0.89245  1
 V  V2  1  0.61618  0.98145  0.35937  1
 V  V3  1  0.38382  0.01855  0.64063  1
 V  V4  1  0.87421  0.97615  0.10755  1
 V  V5  1  0.12579  0.47615  0.39245  1
 V  V6  1  0.87421  0.52385  0.60755  1
 V  V7  1  0.61618  0.51855  0.85937  1
 V  V8  1  0.38382  0.48145  0.14063  1
