CIF file written using JARVIS-Tools package.
data_Nb6Co16Ge7
_symmetry_space_group_name_H-M  'Fm-3m'
_cell_length_a       8.05512
_cell_length_b       8.05511
_cell_length_c       8.05512
_cell_angle_alpha    60
_cell_angle_beta     60
_cell_angle_gamma    60

_symmetry_Int_Tables_number  225
_chemical_formula_structural  Nb6Co16Ge7
_chemical_formula_sum  Nb6Co6Ge7
_cell_volume  369.57314243690263
_cell_formula_units_Z  1
loop_
  _symmetry_equiv_pos_site_id
 _symmetry_equiv_pos_as_xyz
 1  'x, y, z'
loop_
 _atom_site_type_symbol
 _atom_site_label
 _atom_site_symmetry_multiplicity
 _atom_site_fract_x
 _atom_site_fract_y
 _atom_site_fract_z
 _atom_site_fract_occupancy
 Co  Co1  1  0.16500  0.50499  0.16500  1
 Co  Co2  1  0.38076  0.38076  0.85772  1
 Co  Co3  1  0.83500  0.83500  0.49501  1
 Co  Co4  1  0.16500  0.16500  0.50499  1
 Co  Co5  1  0.83500  0.49501  0.83500  1
 Co  Co6  1  0.61924  0.61924  0.14228  1
 Co  Co7  1  0.16500  0.16500  0.16500  1
 Co  Co8  1  0.38076  0.85772  0.38076  1
 Co  Co9  1  0.61924  0.61924  0.61924  1
 Co  Co10  1  0.50499  0.16500  0.16500  1
 Co  Co11  1  0.85772  0.38076  0.38076  1
 Co  Co12  1  0.83500  0.83500  0.83500  1
 Co  Co13  1  0.14228  0.61924  0.61924  1
 Co  Co14  1  0.49501  0.83500  0.83500  1
 Co  Co15  1  0.38076  0.38076  0.38076  1
 Co  Co16  1  0.61924  0.14228  0.61924  1
 Ge  Ge1  1  0.50000  0.50000  0.00000  1
 Ge  Ge2  1  -0.00000  0.50000  0.50000  1
 Ge  Ge3  1  0.50000  0.00000  0.50000  1
 Ge  Ge4  1  0.50000  0.50000  0.50000  1
 Ge  Ge5  1  -0.00000  0.50000  0.00000  1
 Ge  Ge6  1  0.00000  0.00000  0.50000  1
 Ge  Ge7  1  0.50000  0.00000  -0.00000  1
 Nb  Nb1  1  0.79789  0.20211  0.20211  1
 Nb  Nb2  1  0.20211  0.79789  0.79789  1
 Nb  Nb3  1  0.20211  0.79789  0.20211  1
 Nb  Nb4  1  0.20211  0.20211  0.79789  1
 Nb  Nb5  1  0.79789  0.20211  0.79789  1
 Nb  Nb6  1  0.79789  0.79789  0.20211  1
