CIF file written using JARVIS-Tools package.
data_Rb2AgCl3
_symmetry_space_group_name_H-M  'Pnma'
_cell_length_a       4.45271
_cell_length_b       9.15137
_cell_length_c       17.7632
_cell_angle_alpha    90
_cell_angle_beta     90
_cell_angle_gamma    90

_symmetry_Int_Tables_number  62
_chemical_formula_structural  Rb2AgCl3
_chemical_formula_sum  Rb8Ag4Cl2
_cell_volume  723.8215095420983
_cell_formula_units_Z  4
loop_
  _symmetry_equiv_pos_site_id
 _symmetry_equiv_pos_as_xyz
 1  'x, y, z'
loop_
 _atom_site_type_symbol
 _atom_site_label
 _atom_site_symmetry_multiplicity
 _atom_site_fract_x
 _atom_site_fract_y
 _atom_site_fract_z
 _atom_site_fract_occupancy
 Ag  Ag1  1  0.25000  0.37447  0.36702  1
 Ag  Ag2  1  0.75000  0.12553  0.86702  1
 Ag  Ag3  1  0.25000  0.87447  0.13298  1
 Ag  Ag4  1  0.75000  0.62553  0.63298  1
 Cl  Cl1  1  0.25000  0.49366  0.59774  1
 Cl  Cl2  1  0.25000  0.80729  0.27559  1
 Cl  Cl3  1  0.75000  0.19271  0.72441  1
 Cl  Cl4  1  0.25000  0.30729  0.22441  1
 Cl  Cl5  1  0.75000  0.69271  0.77559  1
 Cl  Cl6  1  0.25000  0.61596  0.07303  1
 Cl  Cl7  1  0.75000  0.38404  0.92697  1
 Cl  Cl8  1  0.25000  0.11596  0.42697  1
 Cl  Cl9  1  0.75000  0.88404  0.57303  1
 Cl  Cl10  1  0.75000  0.00634  0.09774  1
 Cl  Cl11  1  0.75000  0.50634  0.40226  1
 Cl  Cl12  1  0.25000  0.99366  0.90226  1
 Rb  Rb1  1  0.25000  0.25643  0.04153  1
 Rb  Rb2  1  0.75000  0.74357  0.95847  1
 Rb  Rb3  1  0.25000  0.75643  0.45847  1
 Rb  Rb4  1  0.75000  0.24357  0.54153  1
 Rb  Rb5  1  0.75000  0.57144  0.21262  1
 Rb  Rb6  1  0.25000  0.42856  0.78738  1
 Rb  Rb7  1  0.75000  0.07144  0.28738  1
 Rb  Rb8  1  0.25000  0.92856  0.71262  1
