CIF file written using JARVIS-Tools package.
data_Na3BiO4
_symmetry_space_group_name_H-M  'Cmmm'
_cell_length_a       5.79095
_cell_length_b       3.34872
_cell_length_c       5.79128
_cell_angle_alpha    90
_cell_angle_beta     108.566
_cell_angle_gamma    90

_symmetry_Int_Tables_number  65
_chemical_formula_structural  Na3BiO4
_chemical_formula_sum  Na3BiO4
_cell_volume  106.46130734068396
_cell_formula_units_Z  1
loop_
  _symmetry_equiv_pos_site_id
 _symmetry_equiv_pos_as_xyz
 1  'x, y, z'
loop_
 _atom_site_type_symbol
 _atom_site_label
 _atom_site_symmetry_multiplicity
 _atom_site_fract_x
 _atom_site_fract_y
 _atom_site_fract_z
 _atom_site_fract_occupancy
 Bi  Bi1  1  0.50000  0.50000  -0.00000  1
 Na  Na1  1  0.50000  0.00000  0.50000  1
 Na  Na2  1  -0.00000  0.50000  0.50000  1
 Na  Na3  1  0.00000  0.00000  0.00000  1
 O  O1  1  0.72558  0.00000  0.22556  1
 O  O2  1  0.27874  0.50000  0.22128  1
 O  O3  1  0.27442  0.00000  0.77444  1
 O  O4  1  0.72126  0.50000  0.77872  1
