CIF file written using JARVIS-Tools package.
data_Bi2PbS4
_symmetry_space_group_name_H-M  'Pnma'
_cell_length_a       4.11216
_cell_length_b       11.8416
_cell_length_c       14.6716
_cell_angle_alpha    90
_cell_angle_beta     90
_cell_angle_gamma    90

_symmetry_Int_Tables_number  62
_chemical_formula_structural  Bi2PbS4
_chemical_formula_sum  Bi8Pb4S6
_cell_volume  714.4267118329765
_cell_formula_units_Z  4
loop_
  _symmetry_equiv_pos_site_id
 _symmetry_equiv_pos_as_xyz
 1  'x, y, z'
loop_
 _atom_site_type_symbol
 _atom_site_label
 _atom_site_symmetry_multiplicity
 _atom_site_fract_x
 _atom_site_fract_y
 _atom_site_fract_z
 _atom_site_fract_occupancy
 Bi  Bi1  1  0.25000  0.39792  0.40202  1
 Bi  Bi2  1  0.75000  0.60208  0.59798  1
 Bi  Bi3  1  0.75000  0.06699  0.39153  1
 Bi  Bi4  1  0.25000  0.89792  0.09798  1
 Bi  Bi5  1  0.75000  0.10208  0.90202  1
 Bi  Bi6  1  0.25000  0.43301  0.89153  1
 Bi  Bi7  1  0.25000  0.93301  0.60847  1
 Bi  Bi8  1  0.75000  0.56699  0.10847  1
 Pb  Pb1  1  0.75000  0.24743  0.65247  1
 Pb  Pb2  1  0.25000  0.25257  0.15247  1
 Pb  Pb3  1  0.25000  0.75257  0.34753  1
 Pb  Pb4  1  0.75000  0.74743  0.84753  1
 S  S1  1  0.75000  0.83636  0.48724  1
 S  S2  1  0.25000  0.73701  0.70007  1
 S  S3  1  0.25000  0.44485  0.59111  1
 S  S4  1  0.75000  0.33636  0.01276  1
 S  S5  1  0.75000  0.55515  0.40889  1
 S  S6  1  0.75000  0.76299  0.20007  1
 S  S7  1  0.25000  0.23701  0.79993  1
 S  S8  1  0.75000  0.51702  0.78643  1
 S  S9  1  0.25000  0.98298  0.28643  1
 S  S10  1  0.25000  0.48298  0.21357  1
 S  S11  1  0.75000  0.01702  0.71357  1
 S  S12  1  0.25000  0.66364  0.98724  1
 S  S13  1  0.25000  0.94485  0.90889  1
 S  S14  1  0.75000  0.26299  0.29993  1
 S  S15  1  0.25000  0.16364  0.51276  1
 S  S16  1  0.75000  0.05515  0.09111  1
