CIF file written using JARVIS-Tools package.
data_TaSb2
_symmetry_space_group_name_H-M  'C2/m'
_cell_length_a       3.70933
_cell_length_b       5.51107
_cell_length_c       7.51752
_cell_angle_alpha    78.5504
_cell_angle_beta     75.717
_cell_angle_gamma    70.3342

_symmetry_Int_Tables_number  12
_chemical_formula_structural  TaSb2
_chemical_formula_sum  Ta2Sb4
_cell_volume  139.11189719032086
_cell_formula_units_Z  2
loop_
  _symmetry_equiv_pos_site_id
 _symmetry_equiv_pos_as_xyz
 1  'x, y, z'
loop_
 _atom_site_type_symbol
 _atom_site_label
 _atom_site_symmetry_multiplicity
 _atom_site_fract_x
 _atom_site_fract_y
 _atom_site_fract_z
 _atom_site_fract_occupancy
 Sb  Sb1  1  0.14840  0.73866  0.96453  1
 Sb  Sb2  1  0.85160  0.26134  0.03547  1
 Sb  Sb3  1  0.40577  0.80106  0.38741  1
 Sb  Sb4  1  0.59423  0.19894  0.61259  1
 Ta  Ta1  1  0.84923  0.61314  0.68840  1
 Ta  Ta2  1  0.15077  0.38686  0.31160  1
