CIF file written using JARVIS-Tools package.
data_LiCr2S4
_symmetry_space_group_name_H-M  'Imma'
_cell_length_a       7.04866
_cell_length_b       7.04867
_cell_length_c       7.04917
_cell_angle_alpha    120.359
_cell_angle_beta     119.968
_cell_angle_gamma    89.7137

_symmetry_Int_Tables_number  74
_chemical_formula_structural  LiCr2S4
_chemical_formula_sum  Li2Cr4S8
_cell_volume  247.0396991112226
_cell_formula_units_Z  2
loop_
  _symmetry_equiv_pos_site_id
 _symmetry_equiv_pos_as_xyz
 1  'x, y, z'
loop_
 _atom_site_type_symbol
 _atom_site_label
 _atom_site_symmetry_multiplicity
 _atom_site_fract_x
 _atom_site_fract_y
 _atom_site_fract_z
 _atom_site_fract_occupancy
 Cr  Cr1  1  0.37751  0.62751  0.75000  1
 Cr  Cr2  1  0.62249  0.37249  0.25000  1
 Cr  Cr3  1  0.50000  -0.00000  0.50000  1
 Cr  Cr4  1  0.00000  0.00000  0.00000  1
 Li  Li1  1  -0.00000  0.50000  0.00000  1
 Li  Li2  1  0.00000  -0.00000  0.50000  1
 S  S1  1  0.75065  0.76490  0.51431  1
 S  S2  1  0.75059  0.23634  0.98569  1
 S  S3  1  0.24553  0.24042  0.00504  1
 S  S4  1  0.24935  0.23510  0.48569  1
 S  S5  1  0.26461  0.75950  0.50504  1
 S  S6  1  0.24941  0.76366  0.01431  1
 S  S7  1  0.73539  0.24049  0.49496  1
 S  S8  1  0.75447  0.75958  0.99496  1
