CIF file written using JARVIS-Tools package.
data_Li4Mn3Fe2Cu3O16
_symmetry_space_group_name_H-M  'Cm'
_cell_length_a       5.64829
_cell_length_b       5.82173
_cell_length_c       9.23573
_cell_angle_alpha    92.9964
_cell_angle_beta     89.9997
_cell_angle_gamma    119.018

_symmetry_Int_Tables_number  8
_chemical_formula_structural  Li4Mn3Fe2Cu3O16
_chemical_formula_sum  Li4Mn3Fe2Cu3O6
_cell_volume  265.0979944195064
_cell_formula_units_Z  1
loop_
  _symmetry_equiv_pos_site_id
 _symmetry_equiv_pos_as_xyz
 1  'x, y, z'
loop_
 _atom_site_type_symbol
 _atom_site_label
 _atom_site_symmetry_multiplicity
 _atom_site_fract_x
 _atom_site_fract_y
 _atom_site_fract_z
 _atom_site_fract_occupancy
 Cu  Cu1  1  0.17099  0.34196  0.28838  1
 Cu  Cu2  1  0.33809  0.17108  0.79136  1
 Cu  Cu3  1  0.83301  0.17108  0.79137  1
 Fe  Fe1  1  0.32362  0.64721  0.01010  1
 Fe  Fe2  1  0.66787  0.33572  0.51656  1
 Li  Li1  1  0.66169  0.32334  0.10148  1
 Li  Li2  1  0.34486  0.68972  0.60005  1
 Li  Li3  1  0.00879  0.01757  0.51259  1
 Li  Li4  1  0.99186  0.98369  0.00188  1
 Mn  Mn1  1  0.16888  0.83200  0.28639  1
 Mn  Mn2  1  0.82564  0.65125  0.78546  1
 Mn  Mn3  1  0.66314  0.83201  0.28639  1
 O  O1  1  0.33756  0.16130  0.40406  1
 O  O2  1  0.82374  0.16130  0.40405  1
 O  O3  1  0.47607  0.95214  0.15903  1
 O  O4  1  0.67305  0.34608  0.88830  1
 O  O5  1  0.99280  0.98558  0.70395  1
 O  O6  1  0.99288  0.98575  0.19096  1
 O  O7  1  0.53255  0.06508  0.64251  1
 O  O8  1  0.63828  0.78454  0.90908  1
 O  O9  1  0.84036  0.68070  0.39526  1
 O  O10  1  0.49086  0.53074  0.15681  1
 O  O11  1  0.03990  0.53073  0.15681  1
 O  O12  1  0.34658  0.69313  0.39300  1
 O  O13  1  0.96833  0.51120  0.64180  1
 O  O14  1  0.15971  0.31939  0.92364  1
 O  O15  1  0.54290  0.51121  0.64180  1
 O  O16  1  0.14627  0.78454  0.90908  1
