CIF file written using JARVIS-Tools package.
data_NaClO3
_symmetry_space_group_name_H-M  'P2_13'
_cell_length_a       6.54073
_cell_length_b       6.54073
_cell_length_c       6.54073
_cell_angle_alpha    90
_cell_angle_beta     90
_cell_angle_gamma    90

_symmetry_Int_Tables_number  198
_chemical_formula_structural  NaClO3
_chemical_formula_sum  Na4Cl4O2
_cell_volume  279.81963317307657
_cell_formula_units_Z  4
loop_
  _symmetry_equiv_pos_site_id
 _symmetry_equiv_pos_as_xyz
 1  'x, y, z'
loop_
 _atom_site_type_symbol
 _atom_site_label
 _atom_site_symmetry_multiplicity
 _atom_site_fract_x
 _atom_site_fract_y
 _atom_site_fract_z
 _atom_site_fract_occupancy
 Cl  Cl1  1  0.41406  0.41406  0.41406  1
 Cl  Cl2  1  0.08594  0.58594  0.91406  1
 Cl  Cl3  1  0.91406  0.08594  0.58594  1
 Cl  Cl4  1  0.58594  0.91406  0.08594  1
 Na  Na1  1  0.07037  0.07037  0.07037  1
 Na  Na2  1  0.42963  0.92963  0.57037  1
 Na  Na3  1  0.57037  0.42963  0.92963  1
 Na  Na4  1  0.92963  0.57037  0.42963  1
 O  O1  1  0.20103  0.40625  0.00056  1
 O  O2  1  0.59375  0.50056  0.29897  1
 O  O3  1  0.79897  0.90625  0.49944  1
 O  O4  1  0.09375  0.99944  0.70103  1
 O  O5  1  0.70103  0.09375  0.99944  1
 O  O6  1  0.29897  0.59375  0.50056  1
 O  O7  1  0.40625  0.00056  0.20103  1
 O  O8  1  0.00056  0.20103  0.40625  1
 O  O9  1  0.49944  0.79897  0.90625  1
 O  O10  1  0.50056  0.29897  0.59375  1
 O  O11  1  0.99944  0.70103  0.09375  1
 O  O12  1  0.90625  0.49944  0.79897  1
