CIF file written using JARVIS-Tools package.
data_ErFe2O4
_symmetry_space_group_name_H-M  'R-3m'
_cell_length_a       8.52651
_cell_length_b       8.52651
_cell_length_c       8.5265
_cell_angle_alpha    23.5665
_cell_angle_beta     23.5665
_cell_angle_gamma    23.5666

_symmetry_Int_Tables_number  166
_chemical_formula_structural  ErFe2O4
_chemical_formula_sum  ErFe2O4
_cell_volume  87.02303988505723
_cell_formula_units_Z  1
loop_
  _symmetry_equiv_pos_site_id
 _symmetry_equiv_pos_as_xyz
 1  'x, y, z'
loop_
 _atom_site_type_symbol
 _atom_site_label
 _atom_site_symmetry_multiplicity
 _atom_site_fract_x
 _atom_site_fract_y
 _atom_site_fract_z
 _atom_site_fract_occupancy
 Er  Er1  1  0.00000  0.00000  0.00000  1
 Fe  Fe1  1  0.78699  0.78699  0.78699  1
 Fe  Fe2  1  0.21301  0.21301  0.21301  1
 O  O1  1  0.87334  0.87334  0.87334  1
 O  O2  1  0.12666  0.12666  0.12666  1
 O  O3  1  0.70808  0.70808  0.70808  1
 O  O4  1  0.29192  0.29192  0.29192  1
