CIF file written using JARVIS-Tools package.
data_TlCdF3
_symmetry_space_group_name_H-M  'Cm'
_cell_length_a       4.4506
_cell_length_b       4.45221
_cell_length_c       4.45173
_cell_angle_alpha    89.9275
_cell_angle_beta     90.039
_cell_angle_gamma    90.0614

_symmetry_Int_Tables_number  8
_chemical_formula_structural  TlCdF3
_chemical_formula_sum  TlCdF3
_cell_volume  88.2111332586895
_cell_formula_units_Z  1
loop_
  _symmetry_equiv_pos_site_id
 _symmetry_equiv_pos_as_xyz
 1  'x, y, z'
loop_
 _atom_site_type_symbol
 _atom_site_label
 _atom_site_symmetry_multiplicity
 _atom_site_fract_x
 _atom_site_fract_y
 _atom_site_fract_z
 _atom_site_fract_occupancy
 Cd  Cd1  1  0.49350  0.49398  0.49199  1
 F  F1  1  0.47182  0.99782  0.51578  1
 F  F2  1  0.99003  0.51744  0.51589  1
 F  F3  1  0.47166  0.51834  0.99580  1
 Tl  Tl1  1  0.01299  0.97242  0.97053  1
