CIF file written using JARVIS-Tools package.
data_Li2VSiO4
_symmetry_space_group_name_H-M  'Pc'
_cell_length_a       4.66491
_cell_length_b       5.80005
_cell_length_c       7.75744
_cell_angle_alpha    90
_cell_angle_beta     126.783
_cell_angle_gamma    90

_symmetry_Int_Tables_number  7
_chemical_formula_structural  Li2VSiO4
_chemical_formula_sum  Li4V2Si2O8
_cell_volume  168.10323899951183
_cell_formula_units_Z  2
loop_
  _symmetry_equiv_pos_site_id
 _symmetry_equiv_pos_as_xyz
 1  'x, y, z'
loop_
 _atom_site_type_symbol
 _atom_site_label
 _atom_site_symmetry_multiplicity
 _atom_site_fract_x
 _atom_site_fract_y
 _atom_site_fract_z
 _atom_site_fract_occupancy
 Li  Li1  1  0.51106  0.84942  0.99854  1
 Li  Li2  1  0.77082  0.69406  0.75848  1
 Li  Li3  1  0.51106  0.15058  0.49854  1
 Li  Li4  1  0.77082  0.30594  0.25848  1
 O  O1  1  0.86101  0.31821  0.78129  1
 O  O2  1  0.31477  0.69994  0.72078  1
 O  O3  1  0.63662  0.84139  0.49904  1
 O  O4  1  0.10397  0.10592  0.50185  1
 O  O5  1  0.86101  0.68179  0.28129  1
 O  O6  1  0.31477  0.30006  0.22078  1
 O  O7  1  0.10397  0.89408  0.00185  1
 O  O8  1  0.63662  0.15861  -0.00096  1
 Si  Si1  1  0.99178  0.16298  0.00017  1
 Si  Si2  1  0.99178  0.83702  0.50017  1
 V  V1  1  0.27856  0.35745  0.73856  1
 V  V2  1  0.27856  0.64255  0.23856  1
