CIF file written using JARVIS-Tools package.
data_NdN2
_symmetry_space_group_name_H-M  'Cm'
_cell_length_a       6.63778
_cell_length_b       6.63777
_cell_length_c       6.1304
_cell_angle_alpha    65.1102
_cell_angle_beta     65.1103
_cell_angle_gamma    42.3093

_symmetry_Int_Tables_number  8
_chemical_formula_structural  NdN2
_chemical_formula_sum  Nd3N6
_cell_volume  162.24950210435554
_cell_formula_units_Z  3
loop_
  _symmetry_equiv_pos_site_id
 _symmetry_equiv_pos_as_xyz
 1  'x, y, z'
loop_
 _atom_site_type_symbol
 _atom_site_label
 _atom_site_symmetry_multiplicity
 _atom_site_fract_x
 _atom_site_fract_y
 _atom_site_fract_z
 _atom_site_fract_occupancy
 N  N1  1  0.15760  0.15760  0.18384  1
 N  N2  1  0.61171  0.61171  0.75644  1
 N  N3  1  0.82063  0.82063  0.84431  1
 N  N4  1  0.37952  0.37952  0.28874  1
 N  N5  1  0.60226  0.60226  0.56163  1
 N  N6  1  0.92851  0.92851  0.75172  1
 Nd  Nd1  1  0.36455  0.36455  0.93380  1
 Nd  Nd2  1  0.17607  0.17607  0.54375  1
 Nd  Nd3  1  0.58454  0.58454  0.17992  1
