CIF file written using JARVIS-Tools package.
data_KSrVO4
_symmetry_space_group_name_H-M  'P2_12_12_1'
_cell_length_a       5.86019
_cell_length_b       7.47305
_cell_length_c       9.9838
_cell_angle_alpha    90
_cell_angle_beta     90
_cell_angle_gamma    90

_symmetry_Int_Tables_number  19
_chemical_formula_structural  KSrVO4
_chemical_formula_sum  K4Sr4V4O6
_cell_volume  437.22551714251296
_cell_formula_units_Z  4
loop_
  _symmetry_equiv_pos_site_id
 _symmetry_equiv_pos_as_xyz
 1  'x, y, z'
loop_
 _atom_site_type_symbol
 _atom_site_label
 _atom_site_symmetry_multiplicity
 _atom_site_fract_x
 _atom_site_fract_y
 _atom_site_fract_z
 _atom_site_fract_occupancy
 K  K1  1  0.48453  0.09343  0.57792  1
 K  K2  1  0.51547  0.59343  0.92208  1
 K  K3  1  0.01547  0.90657  0.07792  1
 K  K4  1  0.98453  0.40657  0.42208  1
 O  O1  1  0.50722  0.92780  0.07399  1
 O  O2  1  0.73887  0.48325  0.66913  1
 O  O3  1  0.25623  0.44149  0.67421  1
 O  O4  1  0.06920  0.25088  0.06324  1
 O  O5  1  0.74377  0.94149  0.82579  1
 O  O6  1  0.56920  0.24912  0.93676  1
 O  O7  1  0.24377  0.55851  0.17421  1
 O  O8  1  0.26113  0.98325  0.83087  1
 O  O9  1  0.99278  0.07220  0.57399  1
 O  O10  1  0.75623  0.05851  0.32579  1
 O  O11  1  0.00722  0.57220  0.92601  1
 O  O12  1  0.23887  0.01675  0.33087  1
 O  O13  1  0.76113  0.51675  0.16913  1
 O  O14  1  0.43080  0.74912  0.56324  1
 O  O15  1  0.49278  0.42780  0.42601  1
 O  O16  1  0.93080  0.75088  0.43676  1
 Sr  Sr1  1  0.02161  0.74894  0.69813  1
 Sr  Sr2  1  0.52161  0.75106  0.30187  1
 Sr  Sr3  1  0.47839  0.25106  0.19813  1
 Sr  Sr4  1  0.97839  0.24894  0.80187  1
 V  V1  1  0.48493  0.52458  0.58421  1
 V  V2  1  0.01507  0.47542  0.08421  1
 V  V3  1  0.98493  0.97542  0.41579  1
 V  V4  1  0.51507  0.02458  0.91579  1
