CIF file written using JARVIS-Tools package.
data_ZnH2O2
_symmetry_space_group_name_H-M  'P2_12_12_1'
_cell_length_a       4.82601
_cell_length_b       8.58035
_cell_length_c       5.10404
_cell_angle_alpha    90
_cell_angle_beta     89.9955
_cell_angle_gamma    90

_symmetry_Int_Tables_number  19
_chemical_formula_structural  ZnH2O2
_chemical_formula_sum  Zn4H8O8
_cell_volume  211.3526964388835
_cell_formula_units_Z  4
loop_
  _symmetry_equiv_pos_site_id
 _symmetry_equiv_pos_as_xyz
 1  'x, y, z'
loop_
 _atom_site_type_symbol
 _atom_site_label
 _atom_site_symmetry_multiplicity
 _atom_site_fract_x
 _atom_site_fract_y
 _atom_site_fract_z
 _atom_site_fract_occupancy
 H  H1  1  0.00541  0.40934  0.67106  1
 H  H2  1  0.28907  0.41667  0.36003  1
 H  H3  1  0.21097  0.59645  0.86016  1
 H  H4  1  0.71093  0.91667  0.63997  1
 H  H5  1  0.78903  0.09645  0.13984  1
 H  H6  1  0.99459  0.90934  0.32894  1
 H  H7  1  0.49469  0.60382  0.17118  1
 H  H8  1  0.50531  0.10382  0.82882  1
 O  O1  1  0.86285  0.83775  0.61486  1
 O  O2  1  0.43133  0.03310  0.68840  1
 O  O3  1  0.06856  0.98003  0.18846  1
 O  O4  1  0.93144  0.48003  0.81154  1
 O  O5  1  0.56867  0.53310  0.31160  1
 O  O6  1  0.13715  0.33775  0.38514  1
 O  O7  1  0.63712  0.17538  0.11473  1
 O  O8  1  0.36288  0.67538  0.88527  1
 Zn  Zn1  1  0.32347  0.13290  0.35771  1
 Zn  Zn2  1  0.17651  0.88022  0.85780  1
 Zn  Zn3  1  0.82349  0.38022  0.14220  1
 Zn  Zn4  1  0.67653  0.63290  0.64229  1
