CIF file written using JARVIS-Tools package.
data_Na4H6Ru
_symmetry_space_group_name_H-M  'P1'
_cell_length_a       6.43915
_cell_length_b       6.43915
_cell_length_c       6.43915
_cell_angle_alpha    89.3638
_cell_angle_beta     89.3638
_cell_angle_gamma    89.3638

_symmetry_Int_Tables_number  1
_chemical_formula_structural  Na4H6Ru
_chemical_formula_sum  Na8H2Ru2
_cell_volume  266.93553198540417
_cell_formula_units_Z  2
loop_
  _symmetry_equiv_pos_site_id
 _symmetry_equiv_pos_as_xyz
 1  'x, y, z'
loop_
 _atom_site_type_symbol
 _atom_site_label
 _atom_site_symmetry_multiplicity
 _atom_site_fract_x
 _atom_site_fract_y
 _atom_site_fract_z
 _atom_site_fract_occupancy
 H  H1  1  0.94789  0.05874  0.26177  1
 H  H2  1  0.55211  0.23823  0.44126  1
 H  H3  1  0.23823  0.44126  0.55211  1
 H  H4  1  0.50000  0.50000  0.50000  1
 H  H5  1  0.05211  0.94126  0.73823  1
 H  H6  1  0.94126  0.73823  0.05211  1
 H  H7  1  0.44126  0.55211  0.23823  1
 H  H8  1  0.44789  0.76177  0.55874  1
 H  H9  1  0.26177  0.94789  0.05874  1
 H  H10  1  0.05874  0.26177  0.94789  1
 H  H11  1  0.76177  0.55874  0.44789  1
 H  H12  1  0.55874  0.44789  0.76177  1
 Na  Na1  1  0.25000  0.25000  0.25000  1
 Na  Na2  1  0.37415  0.12585  0.75000  1
 Na  Na3  1  0.75000  0.37415  0.12585  1
 Na  Na4  1  0.12585  0.75000  0.37415  1
 Na  Na5  1  0.25000  0.62585  0.87415  1
 Na  Na6  1  0.87415  0.25000  0.62585  1
 Na  Na7  1  0.62585  0.87415  0.25000  1
 Na  Na8  1  0.75000  0.75000  0.75000  1
 Ru  Ru1  1  0.73823  0.05211  0.94126  1
 Ru  Ru2  1  0.00000  0.00000  0.00000  1
