CIF file written using JARVIS-Tools package.
data_CdAu2F8
_symmetry_space_group_name_H-M  'P4/mcc'
_cell_length_a       5.74033
_cell_length_b       5.74033
_cell_length_c       10.4252
_cell_angle_alpha    90
_cell_angle_beta     90
_cell_angle_gamma    90

_symmetry_Int_Tables_number  124
_chemical_formula_structural  CdAu2F8
_chemical_formula_sum  Cd2Au4F6
_cell_volume  343.5227443989328
_cell_formula_units_Z  2
loop_
  _symmetry_equiv_pos_site_id
 _symmetry_equiv_pos_as_xyz
 1  'x, y, z'
loop_
 _atom_site_type_symbol
 _atom_site_label
 _atom_site_symmetry_multiplicity
 _atom_site_fract_x
 _atom_site_fract_y
 _atom_site_fract_z
 _atom_site_fract_occupancy
 Au  Au1  1  0.50000  0.00000  0.00000  1
 Au  Au2  1  0.00000  0.50000  0.00000  1
 Au  Au3  1  0.00000  0.50000  0.50000  1
 Au  Au4  1  0.50000  0.00000  0.50000  1
 Cd  Cd1  1  0.00000  0.00000  0.25000  1
 Cd  Cd2  1  0.00000  0.00000  0.75000  1
 F  F1  1  0.68983  0.84491  0.63078  1
 F  F2  1  0.31017  0.15509  0.63078  1
 F  F3  1  0.84491  0.68983  0.86922  1
 F  F4  1  0.84491  0.31017  0.63078  1
 F  F5  1  0.15509  0.31017  0.86922  1
 F  F6  1  0.31017  0.84491  0.86922  1
 F  F7  1  0.15509  0.68983  0.63078  1
 F  F8  1  0.84491  0.31017  0.36922  1
 F  F9  1  0.68983  0.15509  0.13078  1
 F  F10  1  0.84491  0.68983  0.13078  1
 F  F11  1  0.15509  0.68983  0.36922  1
 F  F12  1  0.15509  0.31017  0.13078  1
 F  F13  1  0.68983  0.84491  0.36922  1
 F  F14  1  0.31017  0.15509  0.36922  1
 F  F15  1  0.31017  0.84491  0.13078  1
 F  F16  1  0.68983  0.15509  0.86922  1
