CIF file written using JARVIS-Tools package.
data_Ba2TaBiO6
_symmetry_space_group_name_H-M  'C2/m'
_cell_length_a       6.08414
_cell_length_b       6.08361
_cell_length_c       6.11997
_cell_angle_alpha    60.633
_cell_angle_beta     60.1947
_cell_angle_gamma    59.9986

_symmetry_Int_Tables_number  12
_chemical_formula_structural  Ba2TaBiO6
_chemical_formula_sum  Ba2TaBiO6
_cell_volume  161.1631927933213
_cell_formula_units_Z  1
loop_
  _symmetry_equiv_pos_site_id
 _symmetry_equiv_pos_as_xyz
 1  'x, y, z'
loop_
 _atom_site_type_symbol
 _atom_site_label
 _atom_site_symmetry_multiplicity
 _atom_site_fract_x
 _atom_site_fract_y
 _atom_site_fract_z
 _atom_site_fract_occupancy
 Ba  Ba1  1  0.75117  0.75356  0.74409  1
 Ba  Ba2  1  0.24883  0.24644  0.25591  1
 Bi  Bi1  1  0.00000  -0.00000  -0.00000  1
 O  O1  1  0.30291  0.23733  0.69201  1
 O  O2  1  0.69709  0.76267  0.30799  1
 O  O3  1  0.76775  0.23733  0.69202  1
 O  O4  1  0.72878  0.33615  0.20630  1
 O  O5  1  0.23225  0.76267  0.30798  1
 O  O6  1  0.27122  0.66385  0.79370  1
 Ta  Ta1  1  0.50000  0.50000  0.50000  1
