CIF file written using JARVIS-Tools package.
data_Rb2Si3SnO9
_symmetry_space_group_name_H-M  'P6_3/m'
_cell_length_a       7.0351
_cell_length_b       7.0351
_cell_length_c       10.1771
_cell_angle_alpha    90
_cell_angle_beta     90
_cell_angle_gamma    120

_symmetry_Int_Tables_number  176
_chemical_formula_structural  Rb2Si3SnO9
_chemical_formula_sum  Rb4Si6Sn2O8
_cell_volume  436.2110168774904
_cell_formula_units_Z  2
loop_
  _symmetry_equiv_pos_site_id
 _symmetry_equiv_pos_as_xyz
 1  'x, y, z'
loop_
 _atom_site_type_symbol
 _atom_site_label
 _atom_site_symmetry_multiplicity
 _atom_site_fract_x
 _atom_site_fract_y
 _atom_site_fract_z
 _atom_site_fract_occupancy
 O  O1  1  0.08753  0.49329  0.25000  1
 O  O2  1  0.25530  0.02785  0.61382  1
 O  O3  1  0.02785  0.77255  0.11382  1
 O  O4  1  0.59424  0.08753  0.75000  1
 O  O5  1  0.77255  0.74470  0.61382  1
 O  O6  1  0.97215  0.22745  0.61382  1
 O  O7  1  0.74470  0.97215  0.11382  1
 O  O8  1  0.74470  0.97215  0.38618  1
 O  O9  1  0.22745  0.25530  0.11382  1
 O  O10  1  0.77255  0.74470  0.88618  1
 O  O11  1  0.02785  0.77255  0.38618  1
 O  O12  1  0.25530  0.02785  0.88618  1
 O  O13  1  0.49329  0.40576  0.75000  1
 O  O14  1  0.40576  0.91247  0.25000  1
 O  O15  1  0.50671  0.59424  0.25000  1
 O  O16  1  0.91247  0.50671  0.75000  1
 O  O17  1  0.22745  0.25530  0.38618  1
 O  O18  1  0.97215  0.22745  0.88618  1
 Rb  Rb1  1  0.66667  0.33333  0.05946  1
 Rb  Rb2  1  0.33333  0.66667  0.55946  1
 Rb  Rb3  1  0.66667  0.33333  0.44054  1
 Rb  Rb4  1  0.33333  0.66667  0.94054  1
 Si  Si1  1  0.75175  0.61738  0.75000  1
 Si  Si2  1  0.61738  0.86563  0.25000  1
 Si  Si3  1  0.86563  0.24825  0.75000  1
 Si  Si4  1  0.38262  0.13437  0.75000  1
 Si  Si5  1  0.24825  0.38262  0.25000  1
 Si  Si6  1  0.13437  0.75175  0.25000  1
 Sn  Sn1  1  0.00000  0.00000  0.50000  1
 Sn  Sn2  1  0.00000  0.00000  0.00000  1
