CIF file written using JARVIS-Tools package.
data_Zr2Al
_symmetry_space_group_name_H-M  'I4/mcm'
_cell_length_a       5.39131
_cell_length_b       5.54305
_cell_length_c       5.54305
_cell_angle_alpha    76.3199
_cell_angle_beta     60.9015
_cell_angle_gamma    60.9015

_symmetry_Int_Tables_number  140
_chemical_formula_structural  Zr2Al
_chemical_formula_sum  Zr4Al2
_cell_volume  126.47388331253173
_cell_formula_units_Z  2
loop_
  _symmetry_equiv_pos_site_id
 _symmetry_equiv_pos_as_xyz
 1  'x, y, z'
loop_
 _atom_site_type_symbol
 _atom_site_label
 _atom_site_symmetry_multiplicity
 _atom_site_fract_x
 _atom_site_fract_y
 _atom_site_fract_z
 _atom_site_fract_occupancy
 Al  Al1  1  0.75000  0.00000  0.00000  1
 Al  Al2  1  0.25000  0.00000  0.00000  1
 Zr  Zr1  1  0.65109  0.19783  0.50000  1
 Zr  Zr2  1  0.84891  0.50000  0.80217  1
 Zr  Zr3  1  0.34891  0.80217  0.50000  1
 Zr  Zr4  1  0.15109  0.50000  0.19783  1
