CIF file written using JARVIS-Tools package.
data_TiCl3
_symmetry_space_group_name_H-M  'C2/m'
_cell_length_a       6.01997
_cell_length_b       5.99366
_cell_length_c       17.6174
_cell_angle_alpha    89.851
_cell_angle_beta     89.7034
_cell_angle_gamma    59.8548

_symmetry_Int_Tables_number  12
_chemical_formula_structural  TiCl3
_chemical_formula_sum  Ti6Cl8
_cell_volume  549.687161049119
_cell_formula_units_Z  6
loop_
  _symmetry_equiv_pos_site_id
 _symmetry_equiv_pos_as_xyz
 1  'x, y, z'
loop_
 _atom_site_type_symbol
 _atom_site_label
 _atom_site_symmetry_multiplicity
 _atom_site_fract_x
 _atom_site_fract_y
 _atom_site_fract_z
 _atom_site_fract_occupancy
 Cl  Cl1  1  0.34198  0.65774  0.07841  1
 Cl  Cl2  1  0.65802  0.34226  0.92159  1
 Cl  Cl3  1  0.67433  0.65775  0.74514  1
 Cl  Cl4  1  0.98862  0.00000  0.74899  1
 Cl  Cl5  1  0.67617  -0.00000  0.58445  1
 Cl  Cl6  1  0.32383  0.00000  0.41555  1
 Cl  Cl7  1  0.65629  0.00000  0.08226  1
 Cl  Cl8  1  0.99043  0.34226  0.58831  1
 Cl  Cl9  1  0.34371  -0.00000  0.91774  1
 Cl  Cl10  1  0.00957  0.65774  0.41169  1
 Cl  Cl11  1  0.33269  0.65774  0.58831  1
 Cl  Cl12  1  0.66792  0.65775  0.25486  1
 Cl  Cl13  1  0.00028  0.65774  0.92159  1
 Cl  Cl14  1  0.01138  -0.00000  0.25101  1
 Cl  Cl15  1  0.32567  0.34225  0.25486  1
 Cl  Cl16  1  0.66731  0.34226  0.41169  1
 Cl  Cl17  1  0.99972  0.34226  0.07841  1
 Cl  Cl18  1  0.33208  0.34225  0.74514  1
 Ti  Ti1  1  0.00644  0.32236  0.33328  1
 Ti  Ti2  1  0.66118  0.67764  -0.00000  1
 Ti  Ti3  1  0.99356  0.67764  0.66672  1
 Ti  Ti4  1  0.33882  0.32236  0.00000  1
 Ti  Ti5  1  0.67120  0.32236  0.66672  1
 Ti  Ti6  1  0.32880  0.67764  0.33328  1
