CIF file written using JARVIS-Tools package.
data_Ca3PbSe4
_symmetry_space_group_name_H-M  'Pmmm'
_cell_length_a       4.23903
_cell_length_b       6.0114
_cell_length_c       8.51701
_cell_angle_alpha    90
_cell_angle_beta     90
_cell_angle_gamma    90

_symmetry_Int_Tables_number  47
_chemical_formula_structural  Ca3PbSe4
_chemical_formula_sum  Ca3PbSe4
_cell_volume  217.03494933941334
_cell_formula_units_Z  1
loop_
  _symmetry_equiv_pos_site_id
 _symmetry_equiv_pos_as_xyz
 1  'x, y, z'
loop_
 _atom_site_type_symbol
 _atom_site_label
 _atom_site_symmetry_multiplicity
 _atom_site_fract_x
 _atom_site_fract_y
 _atom_site_fract_z
 _atom_site_fract_occupancy
 Ca  Ca1  1  0.50000  0.00000  0.25234  1
 Ca  Ca2  1  0.00000  0.50000  0.50000  1
 Ca  Ca3  1  0.50000  0.00000  0.74766  1
 Pb  Pb1  1  0.00000  0.50000  0.00000  1
 Se  Se1  1  0.00000  0.00000  0.50000  1
 Se  Se2  1  0.50000  0.50000  0.73858  1
 Se  Se3  1  0.00000  0.00000  0.00000  1
 Se  Se4  1  0.50000  0.50000  0.26142  1
