CIF file written using JARVIS-Tools package.
data_LiNO2
_symmetry_space_group_name_H-M  'Imm2'
_cell_length_a       3.9115
_cell_length_b       3.91149
_cell_length_c       3.9115
_cell_angle_alpha    132.464
_cell_angle_beta     99.8116
_cell_angle_gamma    98.8856

_symmetry_Int_Tables_number  44
_chemical_formula_structural  LiNO2
_chemical_formula_sum  LiNO2
_cell_volume  40.40165874433732
_cell_formula_units_Z  1
loop_
  _symmetry_equiv_pos_site_id
 _symmetry_equiv_pos_as_xyz
 1  'x, y, z'
loop_
 _atom_site_type_symbol
 _atom_site_label
 _atom_site_symmetry_multiplicity
 _atom_site_fract_x
 _atom_site_fract_y
 _atom_site_fract_z
 _atom_site_fract_occupancy
 Li  Li1  1  0.58355  0.00000  0.58355  1
 N  N1  1  0.13392  0.00000  0.13392  1
 O  O1  1  0.20385  0.20909  0.99475  1
 O  O2  1  0.78566  0.79091  0.99475  1
