CIF file written using JARVIS-Tools package.
data_TaS2
_symmetry_space_group_name_H-M  'R3m'
_cell_length_a       6.44659
_cell_length_b       6.44659
_cell_length_c       6.44659
_cell_angle_alpha    30.0474
_cell_angle_beta     30.0474
_cell_angle_gamma    30.0473

_symmetry_Int_Tables_number  160
_chemical_formula_structural  TaS2
_chemical_formula_sum  TaS2
_cell_volume  59.50159769047706
_cell_formula_units_Z  1
loop_
  _symmetry_equiv_pos_site_id
 _symmetry_equiv_pos_as_xyz
 1  'x, y, z'
loop_
 _atom_site_type_symbol
 _atom_site_label
 _atom_site_symmetry_multiplicity
 _atom_site_fract_x
 _atom_site_fract_y
 _atom_site_fract_z
 _atom_site_fract_occupancy
 S  S1  1  0.58502  0.58502  0.58502  1
 S  S2  1  0.41529  0.41529  0.41529  1
 Ta  Ta1  1  0.16670  0.16670  0.16670  1
