CIF file written using JARVIS-Tools package.
data_NClOF4
_symmetry_space_group_name_H-M  'I4cm'
_cell_length_a       6.06141
_cell_length_b       6.06141
_cell_length_c       6.88474
_cell_angle_alpha    116.117
_cell_angle_beta     116.117
_cell_angle_gamma    90

_symmetry_Int_Tables_number  108
_chemical_formula_structural  NClOF4
_chemical_formula_sum  N2Cl2O2F8
_cell_volume  197.95488969632925
_cell_formula_units_Z  2
loop_
  _symmetry_equiv_pos_site_id
 _symmetry_equiv_pos_as_xyz
 1  'x, y, z'
loop_
 _atom_site_type_symbol
 _atom_site_label
 _atom_site_symmetry_multiplicity
 _atom_site_fract_x
 _atom_site_fract_y
 _atom_site_fract_z
 _atom_site_fract_occupancy
 Cl  Cl1  1  0.00087  0.50087  0.00175  1
 Cl  Cl2  1  0.50087  0.00087  0.00175  1
 F  F1  1  0.76239  0.97010  0.23249  1
 F  F2  1  0.03524  0.53524  0.75096  1
 F  F3  1  0.47010  0.26239  0.23249  1
 F  F4  1  0.21573  0.03524  0.75096  1
 F  F5  1  0.97010  0.47010  0.23249  1
 F  F6  1  0.53524  0.71573  0.75096  1
 F  F7  1  0.26239  0.76239  0.23249  1
 F  F8  1  0.71573  0.21573  0.75096  1
 N  N1  1  0.32928  0.32928  0.65857  1
 N  N2  1  0.82928  0.82928  0.65857  1
 O  O1  1  0.72688  0.72688  0.45377  1
 O  O2  1  0.22688  0.22688  0.45377  1
