CIF file written using JARVIS-Tools package.
data_SrTaNO2
_symmetry_space_group_name_H-M  'Pmm2'
_cell_length_a       4.03992
_cell_length_b       4.05509
_cell_length_c       4.08318
_cell_angle_alpha    90
_cell_angle_beta     90
_cell_angle_gamma    90

_symmetry_Int_Tables_number  25
_chemical_formula_structural  SrTaNO2
_chemical_formula_sum  SrTaNO2
_cell_volume  66.89170336315598
_cell_formula_units_Z  1
loop_
  _symmetry_equiv_pos_site_id
 _symmetry_equiv_pos_as_xyz
 1  'x, y, z'
loop_
 _atom_site_type_symbol
 _atom_site_label
 _atom_site_symmetry_multiplicity
 _atom_site_fract_x
 _atom_site_fract_y
 _atom_site_fract_z
 _atom_site_fract_occupancy
 N  N1  1  0.50000  0.51644  0.00000  1
 O  O1  1  0.00000  0.50520  0.50000  1
 O  O2  1  0.50000  0.00367  0.50000  1
 Sr  Sr1  1  0.00000  0.98518  0.00000  1
 Ta  Ta1  1  0.50000  0.48950  0.50000  1
