CIF file written using JARVIS-Tools package.
data_Na4TiAs2O9
_symmetry_space_group_name_H-M  'C2/m'
_cell_length_a       7.25236
_cell_length_b       7.76146
_cell_length_c       8.75071
_cell_angle_alpha    90.2383
_cell_angle_beta     114.481
_cell_angle_gamma    90

_symmetry_Int_Tables_number  12
_chemical_formula_structural  Na4TiAs2O9
_chemical_formula_sum  Na8Ti2As4O8
_cell_volume  448.2821053343286
_cell_formula_units_Z  2
loop_
  _symmetry_equiv_pos_site_id
 _symmetry_equiv_pos_as_xyz
 1  'x, y, z'
loop_
 _atom_site_type_symbol
 _atom_site_label
 _atom_site_symmetry_multiplicity
 _atom_site_fract_x
 _atom_site_fract_y
 _atom_site_fract_z
 _atom_site_fract_occupancy
 As  As1  1  0.38959  0.75944  0.77917  1
 As  As2  1  0.61041  0.24056  0.22083  1
 As  As3  1  0.87039  0.28050  0.74078  1
 As  As4  1  0.12961  0.71950  0.25922  1
 Na  Na1  1  -0.00000  0.50000  0.50000  1
 Na  Na2  1  0.62979  0.72547  0.25958  1
 Na  Na3  1  0.25487  -0.00000  -0.00000  1
 Na  Na4  1  0.50000  0.50000  0.50000  1
 Na  Na5  1  0.89200  0.76921  0.78399  1
 Na  Na6  1  0.10800  0.23079  0.21601  1
 Na  Na7  1  0.37021  0.27453  0.74042  1
 Na  Na8  1  0.74513  0.00000  0.00000  1
 O  O1  1  0.44433  0.12599  0.28314  1
 O  O2  1  0.96517  0.18174  0.93033  1
 O  O3  1  0.49530  0.78290  0.99061  1
 O  O4  1  0.55567  0.87401  0.71686  1
 O  O5  1  0.85910  0.49679  0.71820  1
 O  O6  1  0.61688  0.21517  0.63219  1
 O  O7  1  0.01530  0.21517  0.63219  1
 O  O8  1  0.16118  0.87401  0.71686  1
 O  O9  1  0.83882  0.12599  0.28314  1
 O  O10  1  0.34337  0.56248  0.68673  1
 O  O11  1  0.24115  0.07115  0.48230  1
 O  O12  1  0.14090  0.50321  0.28180  1
 O  O13  1  0.50470  0.21710  0.00939  1
 O  O14  1  0.38312  0.78483  0.36781  1
 O  O15  1  0.03483  0.81826  0.06967  1
 O  O16  1  0.75885  0.92885  0.51770  1
 O  O17  1  0.98470  0.78483  0.36781  1
 O  O18  1  0.65663  0.43752  0.31327  1
 Ti  Ti1  1  0.50000  -0.00000  0.50000  1
 Ti  Ti2  1  -0.00000  0.00000  0.50000  1
