CIF file written using JARVIS-Tools package.
data_Zr2SiTe2As
_symmetry_space_group_name_H-M  'P-4m2'
_cell_length_a       3.76887
_cell_length_b       3.76887
_cell_length_c       10.0299
_cell_angle_alpha    90
_cell_angle_beta     90
_cell_angle_gamma    90

_symmetry_Int_Tables_number  115
_chemical_formula_structural  Zr2SiTe2As
_chemical_formula_sum  Zr2SiTe2As
_cell_volume  142.4679199330026
_cell_formula_units_Z  1
loop_
  _symmetry_equiv_pos_site_id
 _symmetry_equiv_pos_as_xyz
 1  'x, y, z'
loop_
 _atom_site_type_symbol
 _atom_site_label
 _atom_site_symmetry_multiplicity
 _atom_site_fract_x
 _atom_site_fract_y
 _atom_site_fract_z
 _atom_site_fract_occupancy
 As  As1  1  0.00000  0.00000  0.00000  1
 Si  Si1  1  0.50000  0.50000  0.00000  1
 Te  Te1  1  0.50000  0.00000  0.34538  1
 Te  Te2  1  0.00000  0.50000  0.65462  1
 Zr  Zr1  1  0.50000  0.00000  0.79183  1
 Zr  Zr2  1  0.00000  0.50000  0.20817  1
