CIF file written using JARVIS-Tools package.
data_HoMnAl
_symmetry_space_group_name_H-M  'Imma'
_cell_length_a       5.24709
_cell_length_b       5.24709
_cell_length_c       5.24709
_cell_angle_alpha    120.69
_cell_angle_beta     116.583
_cell_angle_gamma    92.4134

_symmetry_Int_Tables_number  74
_chemical_formula_structural  HoMnAl
_chemical_formula_sum  Ho2Mn2Al2
_cell_volume  103.99681493696524
_cell_formula_units_Z  2
loop_
  _symmetry_equiv_pos_site_id
 _symmetry_equiv_pos_as_xyz
 1  'x, y, z'
loop_
 _atom_site_type_symbol
 _atom_site_label
 _atom_site_symmetry_multiplicity
 _atom_site_fract_x
 _atom_site_fract_y
 _atom_site_fract_z
 _atom_site_fract_occupancy
 Al  Al1  1  -0.00000  0.50000  0.50000  1
 Al  Al2  1  0.50000  0.50000  0.00000  1
 Ho  Ho1  1  0.13746  0.88746  0.25000  1
 Ho  Ho2  1  0.86254  0.11254  0.75000  1
 Mn  Mn1  1  0.50000  -0.00000  0.00000  1
 Mn  Mn2  1  0.50000  0.50000  0.50000  1
