CIF file written using JARVIS-Tools package.
data_CaCu2O4
_symmetry_space_group_name_H-M  'Cmcm'
_cell_length_a       3.1313
_cell_length_b       5.15892
_cell_length_c       9.54078
_cell_angle_alpha    90
_cell_angle_beta     90
_cell_angle_gamma    107.667

_symmetry_Int_Tables_number  63
_chemical_formula_structural  CaCu2O4
_chemical_formula_sum  Ca2Cu4O8
_cell_volume  146.85405812390863
_cell_formula_units_Z  2
loop_
  _symmetry_equiv_pos_site_id
 _symmetry_equiv_pos_as_xyz
 1  'x, y, z'
loop_
 _atom_site_type_symbol
 _atom_site_label
 _atom_site_symmetry_multiplicity
 _atom_site_fract_x
 _atom_site_fract_y
 _atom_site_fract_z
 _atom_site_fract_occupancy
 Ca  Ca1  1  0.39468  0.78935  0.75000  1
 Ca  Ca2  1  0.60532  0.21065  0.25000  1
 Cu  Cu1  1  0.86327  0.72655  0.06941  1
 Cu  Cu2  1  0.13673  0.27345  0.93059  1
 Cu  Cu3  1  0.86327  0.72655  0.43059  1
 Cu  Cu4  1  0.13673  0.27345  0.56941  1
 O  O1  1  0.22718  0.45435  0.39411  1
 O  O2  1  0.77282  0.54565  0.60589  1
 O  O3  1  0.77282  0.54565  0.89411  1
 O  O4  1  0.22718  0.45435  0.10589  1
 O  O5  1  0.93792  0.87584  0.25000  1
 O  O6  1  0.06208  0.12416  0.75000  1
 O  O7  1  0.50000  0.00000  0.00000  1
 O  O8  1  0.50000  0.00000  0.50000  1
