CIF file written using JARVIS-Tools package.
data_Rb
_symmetry_space_group_name_H-M  'C2/m'
_cell_length_a       12.2812
_cell_length_b       12.2812
_cell_length_c       7.80533
_cell_angle_alpha    71.3816
_cell_angle_beta     71.3816
_cell_angle_gamma    36.9234

_symmetry_Int_Tables_number  12
_chemical_formula_structural  Rb
_chemical_formula_sum  Rb8
_cell_volume  665.9692939301488
_cell_formula_units_Z  8
loop_
  _symmetry_equiv_pos_site_id
 _symmetry_equiv_pos_as_xyz
 1  'x, y, z'
loop_
 _atom_site_type_symbol
 _atom_site_label
 _atom_site_symmetry_multiplicity
 _atom_site_fract_x
 _atom_site_fract_y
 _atom_site_fract_z
 _atom_site_fract_occupancy
 Rb  Rb1  1  0.18756  0.68745  0.56254  1
 Rb  Rb2  1  0.31255  0.81244  0.93746  1
 Rb  Rb3  1  0.56235  0.06263  0.68742  1
 Rb  Rb4  1  0.81244  0.31255  0.43746  1
 Rb  Rb5  1  0.43765  0.93737  0.31258  1
 Rb  Rb6  1  0.93737  0.43765  0.81258  1
 Rb  Rb7  1  0.68745  0.18756  0.06254  1
 Rb  Rb8  1  0.06263  0.56235  0.18742  1
