CIF file written using JARVIS-Tools package.
data_ZrI4
_symmetry_space_group_name_H-M  'P2/c'
_cell_length_a       8.37443
_cell_length_b       8.39502
_cell_length_c       17.9384
_cell_angle_alpha    103.315
_cell_angle_beta     90
_cell_angle_gamma    90

_symmetry_Int_Tables_number  13
_chemical_formula_structural  ZrI4
_chemical_formula_sum  Zr6I24
_cell_volume  1227.231183397146
_cell_formula_units_Z  6
loop_
  _symmetry_equiv_pos_site_id
 _symmetry_equiv_pos_as_xyz
 1  'x, y, z'
loop_
 _atom_site_type_symbol
 _atom_site_label
 _atom_site_symmetry_multiplicity
 _atom_site_fract_x
 _atom_site_fract_y
 _atom_site_fract_z
 _atom_site_fract_occupancy
 I  I1  1  0.64382  0.07938  0.91414  1
 I  I2  1  0.12175  0.58487  0.91035  1
 I  I3  1  0.61179  0.25004  0.25575  1
 I  I4  1  0.12230  0.92809  0.58072  1
 I  I5  1  0.37249  0.59627  0.42260  1
 I  I6  1  0.12512  0.23573  0.24748  1
 I  I7  1  0.12512  0.76427  0.25252  1
 I  I8  1  0.12230  0.07191  0.91928  1
 I  I9  1  0.38821  0.74996  0.74425  1
 I  I10  1  0.37249  0.40373  0.07740  1
 I  I11  1  0.87488  0.76427  0.75252  1
 I  I12  1  0.87825  0.41513  0.08965  1
 I  I13  1  0.87825  0.58487  0.41035  1
 I  I14  1  0.62751  0.59627  0.92260  1
 I  I15  1  0.87770  0.07191  0.41928  1
 I  I16  1  0.62751  0.40373  0.57740  1
 I  I17  1  0.61179  0.74996  0.24425  1
 I  I18  1  0.35618  0.92062  0.08586  1
 I  I19  1  0.87770  0.92809  0.08072  1
 I  I20  1  0.12175  0.41513  0.58965  1
 I  I21  1  0.87488  0.23573  0.74748  1
 I  I22  1  0.35618  0.07938  0.41414  1
 I  I23  1  0.64382  0.92062  0.58586  1
 I  I24  1  0.38821  0.25004  0.75575  1
 Zr  Zr1  1  0.40191  -0.00000  0.25000  1
 Zr  Zr2  1  0.12314  0.19918  0.08332  1
 Zr  Zr3  1  0.87686  0.80082  0.91668  1
 Zr  Zr4  1  0.59809  -0.00000  0.75000  1
 Zr  Zr5  1  0.12314  0.80082  0.41668  1
 Zr  Zr6  1  0.87686  0.19918  0.58332  1
