CIF file written using JARVIS-Tools package.
data_Li3FeP2HO8
_symmetry_space_group_name_H-M  'P-1'
_cell_length_a       4.96627
_cell_length_b       5.03699
_cell_length_c       6.1711
_cell_angle_alpha    90.7752
_cell_angle_beta     89.5923
_cell_angle_gamma    112.251

_symmetry_Int_Tables_number  2
_chemical_formula_structural  Li3FeP2HO8
_chemical_formula_sum  Li3FeP2HO8
_cell_volume  142.86195897300294
_cell_formula_units_Z  1
loop_
  _symmetry_equiv_pos_site_id
 _symmetry_equiv_pos_as_xyz
 1  'x, y, z'
loop_
 _atom_site_type_symbol
 _atom_site_label
 _atom_site_symmetry_multiplicity
 _atom_site_fract_x
 _atom_site_fract_y
 _atom_site_fract_z
 _atom_site_fract_occupancy
 Fe  Fe1  1  0.00000  0.00000  0.00000  1
 H  H1  1  0.00000  0.50000  0.50000  1
 Li  Li1  1  0.62227  0.22101  0.75539  1
 Li  Li2  1  -0.00000  0.00000  0.50000  1
 Li  Li3  1  0.37773  0.77899  0.24461  1
 O  O1  1  0.76087  0.24944  0.04918  1
 O  O2  1  0.78220  0.29479  0.45768  1
 O  O3  1  0.30831  0.19128  0.26266  1
 O  O4  1  0.27568  0.31074  0.76213  1
 O  O5  1  0.72432  0.68926  0.23787  1
 O  O6  1  0.69169  0.80872  0.73734  1
 O  O7  1  0.21780  0.70521  0.54232  1
 O  O8  1  0.23913  0.75056  0.95082  1
 P  P1  1  0.64017  0.36042  0.24581  1
 P  P2  1  0.35983  0.63958  0.75419  1
