CIF file written using JARVIS-Tools package.
data_RbPO2F2
_symmetry_space_group_name_H-M  'Pnma'
_cell_length_a       6.62542
_cell_length_b       7.65442
_cell_length_c       7.83794
_cell_angle_alpha    90
_cell_angle_beta     90
_cell_angle_gamma    90

_symmetry_Int_Tables_number  62
_chemical_formula_structural  RbPO2F2
_chemical_formula_sum  Rb4P4O8F8
_cell_volume  397.49133883414635
_cell_formula_units_Z  4
loop_
  _symmetry_equiv_pos_site_id
 _symmetry_equiv_pos_as_xyz
 1  'x, y, z'
loop_
 _atom_site_type_symbol
 _atom_site_label
 _atom_site_symmetry_multiplicity
 _atom_site_fract_x
 _atom_site_fract_y
 _atom_site_fract_z
 _atom_site_fract_occupancy
 F  F1  1  0.25000  0.53844  0.97090  1
 F  F2  1  0.25000  0.96156  0.47090  1
 F  F3  1  0.75000  0.04469  0.22558  1
 F  F4  1  0.25000  0.54469  0.27442  1
 F  F5  1  0.25000  0.95531  0.77442  1
 F  F6  1  0.75000  0.03844  0.52910  1
 F  F7  1  0.75000  0.45531  0.72558  1
 F  F8  1  0.75000  0.46156  0.02910  1
 O  O1  1  0.94654  0.27423  0.38065  1
 O  O2  1  0.44654  0.77423  0.11935  1
 O  O3  1  0.55346  0.22577  0.88065  1
 O  O4  1  0.94654  0.22577  0.88065  1
 O  O5  1  0.55346  0.27423  0.38065  1
 O  O6  1  0.05346  0.77423  0.11935  1
 O  O7  1  0.05346  0.72577  0.61935  1
 O  O8  1  0.44654  0.72577  0.61935  1
 P  P1  1  0.75000  0.18134  0.38008  1
 P  P2  1  0.25000  0.81866  0.61992  1
 P  P3  1  0.25000  0.68134  0.11992  1
 P  P4  1  0.75000  0.31866  0.88008  1
 Rb  Rb1  1  0.25000  0.14445  0.13189  1
 Rb  Rb2  1  0.75000  0.64445  0.36811  1
 Rb  Rb3  1  0.75000  0.85555  0.86811  1
 Rb  Rb4  1  0.25000  0.35555  0.63189  1
