CIF file written using JARVIS-Tools package.
data_Co2OF3
_symmetry_space_group_name_H-M  'Cmmm'
_cell_length_a       5.95795
_cell_length_b       6.74824
_cell_length_c       6.98161
_cell_angle_alpha    90
_cell_angle_beta     115.258
_cell_angle_gamma    90

_symmetry_Int_Tables_number  65
_chemical_formula_structural  Co2OF3
_chemical_formula_sum  Co8O4F2
_cell_volume  253.86489869750943
_cell_formula_units_Z  4
loop_
  _symmetry_equiv_pos_site_id
 _symmetry_equiv_pos_as_xyz
 1  'x, y, z'
loop_
 _atom_site_type_symbol
 _atom_site_label
 _atom_site_symmetry_multiplicity
 _atom_site_fract_x
 _atom_site_fract_y
 _atom_site_fract_z
 _atom_site_fract_occupancy
 Co  Co1  1  0.01449  0.00000  0.00000  1
 Co  Co2  1  0.48551  -0.00000  -0.00000  1
 Co  Co3  1  0.48700  -0.00000  0.47401  1
 Co  Co4  1  0.75000  0.50000  0.00000  1
 Co  Co5  1  0.25000  0.50000  0.00000  1
 Co  Co6  1  0.01300  -0.00000  0.52599  1
 Co  Co7  1  0.25000  0.50000  0.50000  1
 Co  Co8  1  0.75000  0.50000  0.50000  1
 F  F1  1  0.65096  0.00000  0.80192  1
 F  F2  1  0.39855  0.50000  0.29711  1
 F  F3  1  0.49707  0.71225  -0.00000  1
 F  F4  1  0.00293  0.71225  0.00000  1
 F  F5  1  0.75000  0.20164  0.50000  1
 F  F6  1  0.25000  0.20164  0.50000  1
 F  F7  1  0.49707  0.28775  -0.00000  1
 F  F8  1  0.75000  0.79836  0.50000  1
 F  F9  1  0.84904  -0.00000  0.19808  1
 F  F10  1  0.25000  0.79836  0.50000  1
 F  F11  1  0.10145  0.50000  0.70289  1
 F  F12  1  0.00293  0.28775  0.00000  1
 O  O1  1  0.34401  -0.00000  0.18803  1
 O  O2  1  0.59433  0.50000  0.68865  1
 O  O3  1  0.90567  0.50000  0.31135  1
 O  O4  1  0.15599  0.00000  0.81197  1
