CIF file written using JARVIS-Tools package.
data_V2B3
_symmetry_space_group_name_H-M  'Cmcm'
_cell_length_a       2.9815
_cell_length_b       3.05459
_cell_length_c       9.33631
_cell_angle_alpha    99.4152
_cell_angle_beta     90
_cell_angle_gamma    90

_symmetry_Int_Tables_number  63
_chemical_formula_structural  V2B3
_chemical_formula_sum  V4B6
_cell_volume  83.88297552706281
_cell_formula_units_Z  2
loop_
  _symmetry_equiv_pos_site_id
 _symmetry_equiv_pos_as_xyz
 1  'x, y, z'
loop_
 _atom_site_type_symbol
 _atom_site_label
 _atom_site_symmetry_multiplicity
 _atom_site_fract_x
 _atom_site_fract_y
 _atom_site_fract_z
 _atom_site_fract_occupancy
 B  B1  1  0.25000  0.16842  0.33684  1
 B  B2  1  0.75000  0.83158  0.66316  1
 B  B3  1  0.25000  0.88233  0.76466  1
 B  B4  1  0.75000  0.11767  0.23534  1
 B  B5  1  0.75000  0.02358  0.04717  1
 B  B6  1  0.25000  0.97642  0.95283  1
 V  V1  1  0.25000  0.29479  0.58959  1
 V  V2  1  0.75000  0.70521  0.41041  1
 V  V3  1  0.25000  0.57056  0.14112  1
 V  V4  1  0.75000  0.42944  0.85888  1
