CIF file written using JARVIS-Tools package.
data_BaLiB9O15
_symmetry_space_group_name_H-M  'R3c'
_cell_length_a       8.55373
_cell_length_b       8.55374
_cell_length_c       8.55373
_cell_angle_alpha    80.282
_cell_angle_beta     80.2819
_cell_angle_gamma    80.2819

_symmetry_Int_Tables_number  161
_chemical_formula_structural  BaLiB9O15
_chemical_formula_sum  Ba2Li2B8O30
_cell_volume  601.6380928331037
_cell_formula_units_Z  2
loop_
  _symmetry_equiv_pos_site_id
 _symmetry_equiv_pos_as_xyz
 1  'x, y, z'
loop_
 _atom_site_type_symbol
 _atom_site_label
 _atom_site_symmetry_multiplicity
 _atom_site_fract_x
 _atom_site_fract_y
 _atom_site_fract_z
 _atom_site_fract_occupancy
 B  B1  1  0.24684  0.57828  0.11096  1
 B  B2  1  0.82045  0.25215  0.67926  1
 B  B3  1  0.07828  0.74684  0.61096  1
 B  B4  1  0.61096  0.07828  0.74684  1
 B  B5  1  0.17926  0.75215  0.32045  1
 B  B6  1  0.25272  0.39071  0.92260  1
 B  B7  1  0.39071  0.92260  0.25272  1
 B  B8  1  0.89071  0.75272  0.42260  1
 B  B9  1  0.75272  0.42260  0.89071  1
 B  B10  1  0.42260  0.89071  0.75272  1
 B  B11  1  0.67926  0.82045  0.25215  1
 B  B12  1  0.74684  0.61096  0.07828  1
 B  B13  1  0.25215  0.67926  0.82045  1
 B  B14  1  0.92260  0.25272  0.39071  1
 B  B15  1  0.32045  0.17926  0.75215  1
 B  B16  1  0.75215  0.32045  0.17926  1
 B  B17  1  0.57828  0.11096  0.24684  1
 B  B18  1  0.11096  0.24684  0.57828  1
 Ba  Ba1  1  0.99574  0.99574  0.99574  1
 Ba  Ba2  1  0.49574  0.49574  0.49574  1
 Li  Li1  1  0.73438  0.73438  0.73438  1
 Li  Li2  1  0.23438  0.23438  0.23438  1
 O  O1  1  0.73842  0.40226  0.73992  1
 O  O2  1  0.40226  0.73992  0.73842  1
 O  O3  1  0.73992  0.73842  0.40226  1
 O  O4  1  0.23992  0.90226  0.23842  1
 O  O5  1  0.90226  0.23842  0.23992  1
 O  O6  1  0.23842  0.23992  0.90226  1
 O  O7  1  0.22993  0.70206  0.98954  1
 O  O8  1  0.10132  0.76022  0.76103  1
 O  O9  1  0.72993  0.48954  0.20206  1
 O  O10  1  0.48954  0.20206  0.72993  1
 O  O11  1  0.76103  0.10132  0.76022  1
 O  O12  1  0.76022  0.76103  0.10132  1
 O  O13  1  0.60132  0.26103  0.26022  1
 O  O14  1  0.98954  0.22993  0.70206  1
 O  O15  1  0.29801  0.01004  0.77507  1
 O  O16  1  0.42114  0.08065  0.24732  1
 O  O17  1  0.27507  0.51004  0.79801  1
 O  O18  1  0.26022  0.60132  0.26103  1
 O  O19  1  0.20206  0.72993  0.48954  1
 O  O20  1  0.58065  0.92114  0.74732  1
 O  O21  1  0.74732  0.58065  0.92114  1
 O  O22  1  0.92114  0.74732  0.58065  1
 O  O23  1  0.24732  0.42114  0.08065  1
 O  O24  1  0.08065  0.24732  0.42114  1
 O  O25  1  0.26103  0.26022  0.60132  1
 O  O26  1  0.77507  0.29801  0.01004  1
 O  O27  1  0.01004  0.77507  0.29801  1
 O  O28  1  0.51004  0.79801  0.27507  1
 O  O29  1  0.79801  0.27507  0.51004  1
 O  O30  1  0.70206  0.98954  0.22993  1
