CIF file written using JARVIS-Tools package.
data_MnH4Cl2O2
_symmetry_space_group_name_H-M  'C2/m'
_cell_length_a       3.68473
_cell_length_b       5.64661
_cell_length_c       5.64661
_cell_angle_alpha    99.3065
_cell_angle_beta     95.2795
_cell_angle_gamma    95.2795

_symmetry_Int_Tables_number  12
_chemical_formula_structural  MnH4Cl2O2
_chemical_formula_sum  MnH4Cl2O2
_cell_volume  114.76162745441538
_cell_formula_units_Z  1
loop_
  _symmetry_equiv_pos_site_id
 _symmetry_equiv_pos_as_xyz
 1  'x, y, z'
loop_
 _atom_site_type_symbol
 _atom_site_label
 _atom_site_symmetry_multiplicity
 _atom_site_fract_x
 _atom_site_fract_y
 _atom_site_fract_z
 _atom_site_fract_occupancy
 Cl  Cl1  1  0.44500  0.75399  0.75399  1
 Cl  Cl2  1  0.55500  0.24601  0.24601  1
 H  H1  1  0.83717  0.60153  0.22913  1
 H  H2  1  0.16283  0.77087  0.39847  1
 H  H3  1  0.16283  0.39847  0.77087  1
 H  H4  1  0.83717  0.22913  0.60153  1
 Mn  Mn1  1  0.00000  0.00000  0.00000  1
 O  O1  1  -0.00000  0.75396  0.24604  1
 O  O2  1  0.00000  0.24604  0.75396  1
