CIF file written using JARVIS-Tools package.
data_NpCu2Ge2
_symmetry_space_group_name_H-M  'I4/mmm'
_cell_length_a       3.96346
_cell_length_b       3.96346
_cell_length_c       6.01169
_cell_angle_alpha    109.247
_cell_angle_beta     109.247
_cell_angle_gamma    90.0001

_symmetry_Int_Tables_number  139
_chemical_formula_structural  NpCu2Ge2
_chemical_formula_sum  NpCu2Ge2
_cell_volume  83.54751571266333
_cell_formula_units_Z  1
loop_
  _symmetry_equiv_pos_site_id
 _symmetry_equiv_pos_as_xyz
 1  'x, y, z'
loop_
 _atom_site_type_symbol
 _atom_site_label
 _atom_site_symmetry_multiplicity
 _atom_site_fract_x
 _atom_site_fract_y
 _atom_site_fract_z
 _atom_site_fract_occupancy
 Cu  Cu1  1  0.75000  0.25000  0.50000  1
 Cu  Cu2  1  0.25000  0.75000  0.50000  1
 Ge  Ge1  1  0.61617  0.61617  0.23234  1
 Ge  Ge2  1  0.38383  0.38383  0.76766  1
 Np  Np1  1  0.00000  0.00000  0.00000  1
