CIF file written using JARVIS-Tools package.
data_BaAs3
_symmetry_space_group_name_H-M  'C2/m'
_cell_length_a       6.09907
_cell_length_b       6.46152
_cell_length_c       6.46152
_cell_angle_alpha    74.7992
_cell_angle_beta     71.6283
_cell_angle_gamma    71.6283

_symmetry_Int_Tables_number  12
_chemical_formula_structural  BaAs3
_chemical_formula_sum  Ba2As6
_cell_volume  225.5674451384625
_cell_formula_units_Z  2
loop_
  _symmetry_equiv_pos_site_id
 _symmetry_equiv_pos_as_xyz
 1  'x, y, z'
loop_
 _atom_site_type_symbol
 _atom_site_label
 _atom_site_symmetry_multiplicity
 _atom_site_fract_x
 _atom_site_fract_y
 _atom_site_fract_z
 _atom_site_fract_occupancy
 As  As1  1  0.18506  0.90674  0.37116  1
 As  As2  1  0.81494  0.62884  0.09326  1
 As  As3  1  0.20652  0.50201  0.50201  1
 As  As4  1  0.79348  0.49799  0.49799  1
 As  As5  1  0.18506  0.37116  0.90674  1
 As  As6  1  0.81494  0.09326  0.62884  1
 Ba  Ba1  1  0.33683  0.83536  0.83536  1
 Ba  Ba2  1  0.66317  0.16464  0.16464  1
