CIF file written using JARVIS-Tools package.
data_ScAl3C3
_symmetry_space_group_name_H-M  'P6_3/mmc'
_cell_length_a       3.36101
_cell_length_b       3.36101
_cell_length_c       16.8015
_cell_angle_alpha    90
_cell_angle_beta     90
_cell_angle_gamma    120

_symmetry_Int_Tables_number  194
_chemical_formula_structural  ScAl3C3
_chemical_formula_sum  Sc2Al6C6
_cell_volume  164.3685790912187
_cell_formula_units_Z  2
loop_
  _symmetry_equiv_pos_site_id
 _symmetry_equiv_pos_as_xyz
 1  'x, y, z'
loop_
 _atom_site_type_symbol
 _atom_site_label
 _atom_site_symmetry_multiplicity
 _atom_site_fract_x
 _atom_site_fract_y
 _atom_site_fract_z
 _atom_site_fract_occupancy
 Al  Al1  1  0.33333  0.66667  0.12881  1
 Al  Al2  1  0.66667  0.33333  0.87119  1
 Al  Al3  1  0.33333  0.66667  0.75000  1
 Al  Al4  1  0.33333  0.66667  0.37119  1
 Al  Al5  1  0.66667  0.33333  0.62881  1
 Al  Al6  1  0.66667  0.33333  0.25000  1
 C  C1  1  0.66667  0.33333  0.08653  1
 C  C2  1  0.66667  0.33333  0.75000  1
 C  C3  1  0.33333  0.66667  0.25000  1
 C  C4  1  0.33333  0.66667  0.91347  1
 C  C5  1  0.66667  0.33333  0.41347  1
 C  C6  1  0.33333  0.66667  0.58653  1
 Sc  Sc1  1  0.00000  0.00000  0.00000  1
 Sc  Sc2  1  0.00000  0.00000  0.50000  1
