CIF file written using JARVIS-Tools package.
data_Li2VCr3O8
_symmetry_space_group_name_H-M  'P6_3mc'
_cell_length_a       5.80224
_cell_length_b       5.80224
_cell_length_c       9.29114
_cell_angle_alpha    90
_cell_angle_beta     90
_cell_angle_gamma    120

_symmetry_Int_Tables_number  186
_chemical_formula_structural  Li2VCr3O8
_chemical_formula_sum  Li4V2Cr6O6
_cell_volume  270.88879859803114
_cell_formula_units_Z  2
loop_
  _symmetry_equiv_pos_site_id
 _symmetry_equiv_pos_as_xyz
 1  'x, y, z'
loop_
 _atom_site_type_symbol
 _atom_site_label
 _atom_site_symmetry_multiplicity
 _atom_site_fract_x
 _atom_site_fract_y
 _atom_site_fract_z
 _atom_site_fract_occupancy
 Cr  Cr1  1  0.65837  0.82919  0.71359  1
 Cr  Cr2  1  0.34163  0.17081  0.21359  1
 Cr  Cr3  1  0.82919  0.17081  0.21359  1
 Cr  Cr4  1  0.82919  0.65837  0.21359  1
 Cr  Cr5  1  0.17081  0.34163  0.71359  1
 Cr  Cr6  1  0.17081  0.82919  0.71359  1
 Li  Li1  1  0.66667  0.33333  0.89393  1
 Li  Li2  1  0.33333  0.66667  0.39393  1
 Li  Li3  1  0.00000  0.00000  0.49585  1
 Li  Li4  1  0.00000  0.00000  0.99585  1
 O  O1  1  0.83094  0.16906  0.59808  1
 O  O2  1  0.95814  0.47907  0.34216  1
 O  O3  1  0.66667  0.33333  0.10190  1
 O  O4  1  0.00000  0.00000  0.30784  1
 O  O5  1  0.00000  0.00000  0.80784  1
 O  O6  1  0.83094  0.66187  0.59808  1
 O  O7  1  0.04186  0.52093  0.84216  1
 O  O8  1  0.52093  0.47907  0.34216  1
 O  O9  1  0.16906  0.33813  0.09808  1
 O  O10  1  0.47907  0.52093  0.84216  1
 O  O11  1  0.47907  0.95814  0.84216  1
 O  O12  1  0.33333  0.66667  0.60190  1
 O  O13  1  0.52093  0.04186  0.34216  1
 O  O14  1  0.66187  0.83094  0.09808  1
 O  O15  1  0.33813  0.16906  0.59808  1
 O  O16  1  0.16906  0.83094  0.09808  1
 V  V1  1  0.33333  0.66667  0.99292  1
 V  V2  1  0.66667  0.33333  0.49292  1
