CIF file written using JARVIS-Tools package.
data_RbAgF3
_symmetry_space_group_name_H-M  'Pm-3m'
_cell_length_a       6.192
_cell_length_b       6.192
_cell_length_c       6.19201
_cell_angle_alpha    90.0154
_cell_angle_beta     119.991
_cell_angle_gamma    119.991

_symmetry_Int_Tables_number  221
_chemical_formula_structural  RbAgF3
_chemical_formula_sum  Rb2Ag2F6
_cell_volume  167.8949800129851
_cell_formula_units_Z  2
loop_
  _symmetry_equiv_pos_site_id
 _symmetry_equiv_pos_as_xyz
 1  'x, y, z'
loop_
 _atom_site_type_symbol
 _atom_site_label
 _atom_site_symmetry_multiplicity
 _atom_site_fract_x
 _atom_site_fract_y
 _atom_site_fract_z
 _atom_site_fract_occupancy
 Ag  Ag1  1  0.50000  0.50000  0.00000  1
 Ag  Ag2  1  0.50000  -0.00000  0.50000  1
 F  F1  1  0.00098  0.25049  0.75049  1
 F  F2  1  0.50000  0.75049  0.74951  1
 F  F3  1  0.50000  0.24951  0.25049  1
 F  F4  1  0.99902  0.74951  0.24951  1
 F  F5  1  0.50000  0.75000  0.25000  1
 F  F6  1  0.50000  0.25000  0.75000  1
 Rb  Rb1  1  -0.00000  0.25000  0.25000  1
 Rb  Rb2  1  -0.00000  0.75000  0.75000  1
