CIF file written using JARVIS-Tools package.
data_V2FeSn
_symmetry_space_group_name_H-M  'Amm2'
_cell_length_a       4.33846
_cell_length_b       5.42002
_cell_length_c       5.87156
_cell_angle_alpha    122.796
_cell_angle_beta     90
_cell_angle_gamma    90

_symmetry_Int_Tables_number  38
_chemical_formula_structural  V2FeSn
_chemical_formula_sum  V4Fe2Sn2
_cell_volume  116.0604528788716
_cell_formula_units_Z  2
loop_
  _symmetry_equiv_pos_site_id
 _symmetry_equiv_pos_as_xyz
 1  'x, y, z'
loop_
 _atom_site_type_symbol
 _atom_site_label
 _atom_site_symmetry_multiplicity
 _atom_site_fract_x
 _atom_site_fract_y
 _atom_site_fract_z
 _atom_site_fract_occupancy
 Fe  Fe1  1  0.75000  0.18169  0.32340  1
 Fe  Fe2  1  0.75000  0.18170  0.85830  1
 Sn  Sn1  1  0.75000  0.68360  0.34181  1
 Sn  Sn2  1  0.25000  0.30249  0.65124  1
 V  V1  1  0.75000  0.75999  0.87999  1
 V  V2  1  0.25000  0.81598  0.67831  1
 V  V3  1  0.25000  0.81596  0.13767  1
 V  V4  1  0.25000  0.25858  0.12929  1
