CIF file written using JARVIS-Tools package.
data_MgSiO3
_symmetry_space_group_name_H-M  'Pnma'
_cell_length_a       4.81517
_cell_length_b       4.97333
_cell_length_c       6.9662
_cell_angle_alpha    90
_cell_angle_beta     90
_cell_angle_gamma    90

_symmetry_Int_Tables_number  62
_chemical_formula_structural  MgSiO3
_chemical_formula_sum  Mg4Si4O2
_cell_volume  166.8224349699837
_cell_formula_units_Z  4
loop_
  _symmetry_equiv_pos_site_id
 _symmetry_equiv_pos_as_xyz
 1  'x, y, z'
loop_
 _atom_site_type_symbol
 _atom_site_label
 _atom_site_symmetry_multiplicity
 _atom_site_fract_x
 _atom_site_fract_y
 _atom_site_fract_z
 _atom_site_fract_occupancy
 Mg  Mg1  1  0.51487  0.55664  0.25000  1
 Mg  Mg2  1  0.01487  0.94336  0.75000  1
 Mg  Mg3  1  0.98513  0.05664  0.25000  1
 Mg  Mg4  1  0.48513  0.44336  0.75000  1
 O  O1  1  0.19561  0.20099  0.94575  1
 O  O2  1  0.39497  0.96419  0.25000  1
 O  O3  1  0.30439  0.70099  0.55425  1
 O  O4  1  0.80439  0.79901  0.44575  1
 O  O5  1  0.69561  0.29901  0.05425  1
 O  O6  1  0.30439  0.70099  0.94575  1
 O  O7  1  0.69561  0.29901  0.44575  1
 O  O8  1  0.10503  0.46419  0.25000  1
 O  O9  1  0.80439  0.79901  0.05425  1
 O  O10  1  0.60503  0.03581  0.75000  1
 O  O11  1  0.19561  0.20099  0.55425  1
 O  O12  1  0.89497  0.53581  0.75000  1
 Si  Si1  1  0.50000  0.00000  0.00000  1
 Si  Si2  1  0.00000  0.50000  0.00000  1
 Si  Si3  1  0.00000  0.50000  0.50000  1
 Si  Si4  1  0.50000  0.00000  0.50000  1
