CIF file written using JARVIS-Tools package.
data_Na2ThF6
_symmetry_space_group_name_H-M  'P321'
_cell_length_a       5.98464
_cell_length_b       5.98464
_cell_length_c       3.84852
_cell_angle_alpha    90
_cell_angle_beta     90
_cell_angle_gamma    120

_symmetry_Int_Tables_number  150
_chemical_formula_structural  Na2ThF6
_chemical_formula_sum  Na2ThF6
_cell_volume  119.37151938394129
_cell_formula_units_Z  1
loop_
  _symmetry_equiv_pos_site_id
 _symmetry_equiv_pos_as_xyz
 1  'x, y, z'
loop_
 _atom_site_type_symbol
 _atom_site_label
 _atom_site_symmetry_multiplicity
 _atom_site_fract_x
 _atom_site_fract_y
 _atom_site_fract_z
 _atom_site_fract_occupancy
 F  F1  1  0.25326  0.25326  0.50000  1
 F  F2  1  0.74674  -0.00000  0.50000  1
 F  F3  1  -0.00000  0.74674  0.50000  1
 F  F4  1  0.00000  0.38256  0.00000  1
 F  F5  1  0.38256  0.00000  0.00000  1
 F  F6  1  0.61744  0.61744  0.00000  1
 Na  Na1  1  0.66667  0.33333  0.42033  1
 Na  Na2  1  0.33333  0.66667  0.57967  1
 Th  Th1  1  0.00000  0.00000  0.00000  1
