CIF file written using JARVIS-Tools package.
data_MgU2O6
_symmetry_space_group_name_H-M  'Immm'
_cell_length_a       6.37161
_cell_length_b       6.37161
_cell_length_c       6.37161
_cell_angle_alpha    145.473
_cell_angle_beta     131.572
_cell_angle_gamma    60.8288

_symmetry_Int_Tables_number  71
_chemical_formula_structural  MgU2O6
_chemical_formula_sum  MgU2O6
_cell_volume  108.60858108818923
_cell_formula_units_Z  1
loop_
  _symmetry_equiv_pos_site_id
 _symmetry_equiv_pos_as_xyz
 1  'x, y, z'
loop_
 _atom_site_type_symbol
 _atom_site_label
 _atom_site_symmetry_multiplicity
 _atom_site_fract_x
 _atom_site_fract_y
 _atom_site_fract_z
 _atom_site_fract_occupancy
 Mg  Mg1  1  0.00000  0.00000  0.00000  1
 O  O1  1  0.74511  0.50000  0.24511  1
 O  O2  1  0.41981  0.16867  0.25114  1
 O  O3  1  0.08247  0.83133  0.25114  1
 O  O4  1  0.25489  0.50000  0.75489  1
 O  O5  1  0.91753  0.16867  0.74886  1
 O  O6  1  0.58019  0.83133  0.74886  1
 U  U1  1  0.66288  0.66288  0.00000  1
 U  U2  1  0.33712  0.33712  0.00000  1
