CIF file written using JARVIS-Tools package.
data_In2GaBiS6
_symmetry_space_group_name_H-M  'P2_1/m'
_cell_length_a       3.83535
_cell_length_b       11.2502
_cell_length_c       12.4007
_cell_angle_alpha    116.845
_cell_angle_beta     90
_cell_angle_gamma    90

_symmetry_Int_Tables_number  11
_chemical_formula_structural  In2GaBiS6
_chemical_formula_sum  In4Ga2Bi2S2
_cell_volume  477.40672736699497
_cell_formula_units_Z  2
loop_
  _symmetry_equiv_pos_site_id
 _symmetry_equiv_pos_as_xyz
 1  'x, y, z'
loop_
 _atom_site_type_symbol
 _atom_site_label
 _atom_site_symmetry_multiplicity
 _atom_site_fract_x
 _atom_site_fract_y
 _atom_site_fract_z
 _atom_site_fract_occupancy
 Bi  Bi1  1  0.75000  0.40360  0.60896  1
 Bi  Bi2  1  0.25000  0.59640  0.39104  1
 Ga  Ga1  1  0.25000  0.17004  0.90811  1
 Ga  Ga2  1  0.75000  0.82996  0.09189  1
 In  In1  1  0.25000  0.73870  0.77724  1
 In  In2  1  0.75000  0.26130  0.22276  1
 In  In3  1  0.75000  0.05116  0.64487  1
 In  In4  1  0.25000  0.94884  0.35513  1
 S  S1  1  0.75000  0.03924  0.26471  1
 S  S2  1  0.25000  0.50871  0.77942  1
 S  S3  1  0.75000  0.64155  0.60336  1
 S  S4  1  0.25000  0.73390  0.12858  1
 S  S5  1  0.25000  0.15660  0.56788  1
 S  S6  1  0.25000  0.13966  0.07686  1
 S  S7  1  0.25000  0.35845  0.39664  1
 S  S8  1  0.75000  0.86034  0.92314  1
 S  S9  1  0.75000  0.26610  0.87142  1
 S  S10  1  0.75000  0.84340  0.43212  1
 S  S11  1  0.25000  0.96076  0.73529  1
 S  S12  1  0.75000  0.49129  0.22058  1
