CIF file written using JARVIS-Tools package.
data_NiO2
_symmetry_space_group_name_H-M  'Cmcm'
_cell_length_a       2.80742
_cell_length_b       4.73256
_cell_length_c       9.19089
_cell_angle_alpha    90
_cell_angle_beta     90
_cell_angle_gamma    107.254

_symmetry_Int_Tables_number  63
_chemical_formula_structural  NiO2
_chemical_formula_sum  Ni4O8
_cell_volume  116.61727956234783
_cell_formula_units_Z  4
loop_
  _symmetry_equiv_pos_site_id
 _symmetry_equiv_pos_as_xyz
 1  'x, y, z'
loop_
 _atom_site_type_symbol
 _atom_site_label
 _atom_site_symmetry_multiplicity
 _atom_site_fract_x
 _atom_site_fract_y
 _atom_site_fract_z
 _atom_site_fract_occupancy
 Ni  Ni1  1  0.86307  0.72614  0.07565  1
 Ni  Ni2  1  0.13693  0.27386  0.92435  1
 Ni  Ni3  1  0.86307  0.72614  0.42435  1
 Ni  Ni4  1  0.13693  0.27386  0.57565  1
 O  O1  1  0.23247  0.46493  0.38945  1
 O  O2  1  0.76753  0.53507  0.61055  1
 O  O3  1  0.76753  0.53507  0.88945  1
 O  O4  1  0.23247  0.46493  0.11055  1
 O  O5  1  0.95371  0.90743  0.25000  1
 O  O6  1  0.04629  0.09257  0.75000  1
 O  O7  1  0.50000  0.00000  0.00000  1
 O  O8  1  0.50000  0.00000  0.50000  1
