CIF file written using JARVIS-Tools package.
data_Na4AgCl5
_symmetry_space_group_name_H-M  'Immm'
_cell_length_a       10.4434
_cell_length_b       10.4434
_cell_length_c       10.4434
_cell_angle_alpha    158.093
_cell_angle_beta     148.966
_cell_angle_gamma    38.3113

_symmetry_Int_Tables_number  71
_chemical_formula_structural  Na4AgCl5
_chemical_formula_sum  Na4AgCl5
_cell_volume  218.77237976317684
_cell_formula_units_Z  1
loop_
  _symmetry_equiv_pos_site_id
 _symmetry_equiv_pos_as_xyz
 1  'x, y, z'
loop_
 _atom_site_type_symbol
 _atom_site_label
 _atom_site_symmetry_multiplicity
 _atom_site_fract_x
 _atom_site_fract_y
 _atom_site_fract_z
 _atom_site_fract_occupancy
 Ag  Ag1  1  0.00000  0.00000  0.00000  1
 Cl  Cl1  1  0.30044  0.80044  0.50000  1
 Cl  Cl2  1  0.89998  0.39998  0.50000  1
 Cl  Cl3  1  0.50000  0.00000  0.50000  1
 Cl  Cl4  1  0.10002  0.60002  0.50000  1
 Cl  Cl5  1  0.69956  0.19956  0.50000  1
 Na  Na1  1  0.59897  0.59897  -0.00000  1
 Na  Na2  1  0.20021  0.20021  0.00000  1
 Na  Na3  1  0.79979  0.79979  0.00000  1
 Na  Na4  1  0.40103  0.40103  0.00000  1
