CIF file written using JARVIS-Tools package.
data_MgCr4S8
_symmetry_space_group_name_H-M  'R-3m'
_cell_length_a       7.13622
_cell_length_b       7.13622
_cell_length_c       7.13622
_cell_angle_alpha    57.1094
_cell_angle_beta     57.1094
_cell_angle_gamma    57.1094

_symmetry_Int_Tables_number  166
_chemical_formula_structural  MgCr4S8
_chemical_formula_sum  MgCr4S8
_cell_volume  239.85651595379517
_cell_formula_units_Z  1
loop_
  _symmetry_equiv_pos_site_id
 _symmetry_equiv_pos_as_xyz
 1  'x, y, z'
loop_
 _atom_site_type_symbol
 _atom_site_label
 _atom_site_symmetry_multiplicity
 _atom_site_fract_x
 _atom_site_fract_y
 _atom_site_fract_z
 _atom_site_fract_occupancy
 Cr  Cr1  1  0.50000  1.00000  0.50000  1
 Cr  Cr2  1  1.00000  0.50000  0.50000  1
 Cr  Cr3  1  0.50000  0.50000  -0.00000  1
 Cr  Cr4  1  0.00000  0.00000  0.00000  1
 Mg  Mg1  1  0.50000  0.50000  0.50000  1
 S  S1  1  0.75833  0.25712  0.75833  1
 S  S2  1  0.24167  0.24167  0.74288  1
 S  S3  1  0.24167  0.74288  0.24167  1
 S  S4  1  0.74288  0.24167  0.24167  1
 S  S5  1  0.25894  0.25894  0.25894  1
 S  S6  1  0.74106  0.74106  0.74106  1
 S  S7  1  0.25712  0.75833  0.75833  1
 S  S8  1  0.75833  0.75833  0.25712  1
