CIF file written using JARVIS-Tools package.
data_CdSeO3
_symmetry_space_group_name_H-M  'P2_1/c'
_cell_length_a       5.81398
_cell_length_b       12.919
_cell_length_c       8.62492
_cell_angle_alpha    90
_cell_angle_beta     101.098
_cell_angle_gamma    90

_symmetry_Int_Tables_number  14
_chemical_formula_structural  CdSeO3
_chemical_formula_sum  Cd8Se8O24
_cell_volume  635.7087606740794
_cell_formula_units_Z  8
loop_
  _symmetry_equiv_pos_site_id
 _symmetry_equiv_pos_as_xyz
 1  'x, y, z'
loop_
 _atom_site_type_symbol
 _atom_site_label
 _atom_site_symmetry_multiplicity
 _atom_site_fract_x
 _atom_site_fract_y
 _atom_site_fract_z
 _atom_site_fract_occupancy
 Cd  Cd1  1  0.61800  0.75800  0.13943  1
 Cd  Cd2  1  0.17784  0.57629  0.88302  1
 Cd  Cd3  1  0.38200  0.25800  0.36057  1
 Cd  Cd4  1  0.82216  0.07629  0.61698  1
 Cd  Cd5  1  0.38200  0.24200  0.86057  1
 Cd  Cd6  1  0.17784  0.92371  0.38302  1
 Cd  Cd7  1  0.61800  0.74200  0.63943  1
 Cd  Cd8  1  0.82216  0.42371  0.11698  1
 O  O1  1  0.60029  0.91965  0.65108  1
 O  O2  1  0.24054  0.73888  -0.00454  1
 O  O3  1  0.95906  0.85837  0.15052  1
 O  O4  1  0.77453  0.75857  0.90629  1
 O  O5  1  0.84008  0.47810  0.86673  1
 O  O6  1  0.60029  0.58035  0.15108  1
 O  O7  1  0.22547  0.25857  0.59371  1
 O  O8  1  0.54300  0.40722  0.28127  1
 O  O9  1  0.15992  0.52190  0.13327  1
 O  O10  1  0.45700  0.59278  0.71873  1
 O  O11  1  0.15992  0.97810  0.63327  1
 O  O12  1  0.75946  0.23888  0.50454  1
 O  O13  1  0.04094  0.35837  0.34948  1
 O  O14  1  0.84008  0.02190  0.36673  1
 O  O15  1  0.54300  0.09278  0.78127  1
 O  O16  1  0.75946  0.26112  0.00454  1
 O  O17  1  0.39971  0.41965  0.84892  1
 O  O18  1  0.22547  0.24143  0.09371  1
 O  O19  1  0.77453  0.74143  0.40629  1
 O  O20  1  0.04094  0.14163  0.84948  1
 O  O21  1  0.95906  0.64163  0.65052  1
 O  O22  1  0.24054  0.76112  0.49546  1
 O  O23  1  0.45700  0.90722  0.21873  1
 O  O24  1  0.39971  0.08035  0.34892  1
 Se  Se1  1  0.02332  0.83339  0.96672  1
 Se  Se2  1  0.41784  0.97079  0.76945  1
 Se  Se3  1  0.97668  0.33339  0.53328  1
 Se  Se4  1  0.41784  0.52921  0.26945  1
 Se  Se5  1  0.58216  0.47079  0.73055  1
 Se  Se6  1  0.97668  0.16661  0.03328  1
 Se  Se7  1  0.58216  0.02921  0.23055  1
 Se  Se8  1  0.02332  0.66661  0.46672  1
