CIF file written using JARVIS-Tools package.
data_Sc2S3
_symmetry_space_group_name_H-M  'C2/m'
_cell_length_a       6.34343
_cell_length_b       19.0367
_cell_length_c       12.1457
_cell_angle_alpha    16.8599
_cell_angle_beta     29.6787
_cell_angle_gamma    33.7501

_symmetry_Int_Tables_number  12
_chemical_formula_structural  Sc2S3
_chemical_formula_sum  Sc4S6
_cell_volume  210.62503304206874
_cell_formula_units_Z  2
loop_
  _symmetry_equiv_pos_site_id
 _symmetry_equiv_pos_as_xyz
 1  'x, y, z'
loop_
 _atom_site_type_symbol
 _atom_site_label
 _atom_site_symmetry_multiplicity
 _atom_site_fract_x
 _atom_site_fract_y
 _atom_site_fract_z
 _atom_site_fract_occupancy
 S  S1  1  0.26066  0.99462  0.25692  1
 S  S2  1  0.26061  0.34220  0.23559  1
 S  S3  1  0.23734  0.66843  0.25655  1
 S  S4  1  0.74299  0.34222  0.73777  1
 S  S5  1  0.76623  0.66838  0.73823  1
 S  S6  1  0.74303  0.99460  0.75918  1
 Sc  Sc1  1  0.00180  0.00322  0.99517  1
 Sc  Sc2  1  0.00180  0.33359  0.99961  1
 Sc  Sc3  1  0.00178  0.66841  0.99737  1
 Sc  Sc4  1  0.50181  0.66840  0.49738  1
