CIF file written using JARVIS-Tools package.
data_Hg2I3Br
_symmetry_space_group_name_H-M  'Cm'
_cell_length_a       4.37984
_cell_length_b       4.37984
_cell_length_c       13.3565
_cell_angle_alpha    89.6949
_cell_angle_beta     89.6949
_cell_angle_gamma    63.3282

_symmetry_Int_Tables_number  8
_chemical_formula_structural  Hg2I3Br
_chemical_formula_sum  Hg2I3Br
_cell_volume  228.9496516836113
_cell_formula_units_Z  1
loop_
  _symmetry_equiv_pos_site_id
 _symmetry_equiv_pos_as_xyz
 1  'x, y, z'
loop_
 _atom_site_type_symbol
 _atom_site_label
 _atom_site_symmetry_multiplicity
 _atom_site_fract_x
 _atom_site_fract_y
 _atom_site_fract_z
 _atom_site_fract_occupancy
 Br  Br1  1  0.08874  0.08874  0.30025  1
 Hg  Hg1  1  0.65501  0.65501  0.65950  1
 Hg  Hg2  1  0.34630  0.34630  0.17442  1
 I  I1  1  0.38911  0.38911  0.52226  1
 I  I2  1  0.60968  0.60968  0.03604  1
 I  I3  1  0.91115  0.91115  0.80281  1
