CIF file written using JARVIS-Tools package.
data_NaCNO
_symmetry_space_group_name_H-M  'R3m'
_cell_length_a       5.48776
_cell_length_b       5.48777
_cell_length_c       5.48776
_cell_angle_alpha    37.8392
_cell_angle_beta     37.8392
_cell_angle_gamma    37.8391

_symmetry_Int_Tables_number  160
_chemical_formula_structural  NaCNO
_chemical_formula_sum  NaCNO
_cell_volume  55.81058009665488
_cell_formula_units_Z  1
loop_
  _symmetry_equiv_pos_site_id
 _symmetry_equiv_pos_as_xyz
 1  'x, y, z'
loop_
 _atom_site_type_symbol
 _atom_site_label
 _atom_site_symmetry_multiplicity
 _atom_site_fract_x
 _atom_site_fract_y
 _atom_site_fract_z
 _atom_site_fract_occupancy
 C  C1  1  0.99887  0.99887  0.99887  1
 N  N1  1  0.07677  0.07677  0.07677  1
 Na  Na1  1  0.49608  0.49608  0.49608  1
 O  O1  1  0.91828  0.91828  0.91828  1
