CIF file written using JARVIS-Tools package.
data_Ti4Cr
_symmetry_space_group_name_H-M  'Fmmm'
_cell_length_a       11.2575
_cell_length_b       11.113
_cell_length_c       2.79961
_cell_angle_alpha    85.7573
_cell_angle_beta     79.8834
_cell_angle_gamma    14.3595

_symmetry_Int_Tables_number  69
_chemical_formula_structural  Ti4Cr
_chemical_formula_sum  Ti4Cr
_cell_volume  78.59675012449915
_cell_formula_units_Z  1
loop_
  _symmetry_equiv_pos_site_id
 _symmetry_equiv_pos_as_xyz
 1  'x, y, z'
loop_
 _atom_site_type_symbol
 _atom_site_label
 _atom_site_symmetry_multiplicity
 _atom_site_fract_x
 _atom_site_fract_y
 _atom_site_fract_z
 _atom_site_fract_occupancy
 Cr  Cr1  1  0.00000  0.00000  0.00000  1
 Ti  Ti1  1  0.41402  0.41402  0.58598  1
 Ti  Ti2  1  0.80335  0.80335  0.19665  1
 Ti  Ti3  1  0.19665  0.19665  0.80335  1
 Ti  Ti4  1  0.58598  0.58598  0.41402  1
