CIF file written using JARVIS-Tools package.
data_CaSnS3
_symmetry_space_group_name_H-M  'P4mm'
_cell_length_a       4.65272
_cell_length_b       4.65272
_cell_length_c       6.15763
_cell_angle_alpha    90
_cell_angle_beta     90
_cell_angle_gamma    90

_symmetry_Int_Tables_number  99
_chemical_formula_structural  CaSnS3
_chemical_formula_sum  CaSnS3
_cell_volume  133.2995275544685
_cell_formula_units_Z  1
loop_
  _symmetry_equiv_pos_site_id
 _symmetry_equiv_pos_as_xyz
 1  'x, y, z'
loop_
 _atom_site_type_symbol
 _atom_site_label
 _atom_site_symmetry_multiplicity
 _atom_site_fract_x
 _atom_site_fract_y
 _atom_site_fract_z
 _atom_site_fract_occupancy
 Ca  Ca1  1  0.50000  0.50000  0.36837  1
 S  S1  1  0.00000  0.00000  0.19469  1
 S  S2  1  0.00000  0.50000  0.63444  1
 S  S3  1  0.50000  0.00000  0.63444  1
 Sn  Sn1  1  0.00000  0.00000  0.80805  1
