CIF file written using JARVIS-Tools package.
data_Ce3Sc
_symmetry_space_group_name_H-M  'P6_3/mmc'
_cell_length_a       6.71148
_cell_length_b       6.71149
_cell_length_c       5.57713
_cell_angle_alpha    90
_cell_angle_beta     90
_cell_angle_gamma    120

_symmetry_Int_Tables_number  194
_chemical_formula_structural  Ce3Sc
_chemical_formula_sum  Ce6Sc2
_cell_volume  217.55966569309166
_cell_formula_units_Z  2
loop_
  _symmetry_equiv_pos_site_id
 _symmetry_equiv_pos_as_xyz
 1  'x, y, z'
loop_
 _atom_site_type_symbol
 _atom_site_label
 _atom_site_symmetry_multiplicity
 _atom_site_fract_x
 _atom_site_fract_y
 _atom_site_fract_z
 _atom_site_fract_occupancy
 Ce  Ce1  1  0.17525  0.35050  0.25000  1
 Ce  Ce2  1  0.64950  0.82475  0.25000  1
 Ce  Ce3  1  0.17525  0.82475  0.25000  1
 Ce  Ce4  1  0.82475  0.64950  0.75000  1
 Ce  Ce5  1  0.35050  0.17525  0.75000  1
 Ce  Ce6  1  0.82475  0.17525  0.75000  1
 Sc  Sc1  1  0.33333  0.66667  0.75000  1
 Sc  Sc2  1  0.66667  0.33333  0.25000  1
