CIF file written using JARVIS-Tools package.
data_K4Na2TeO6
_symmetry_space_group_name_H-M  'P2_1/c'
_cell_length_a       6.71313
_cell_length_b       9.89698
_cell_length_c       7.31118
_cell_angle_alpha    90
_cell_angle_beta     123.201
_cell_angle_gamma    90

_symmetry_Int_Tables_number  14
_chemical_formula_structural  K4Na2TeO6
_chemical_formula_sum  K8Na4Te2O2
_cell_volume  406.4574729604296
_cell_formula_units_Z  2
loop_
  _symmetry_equiv_pos_site_id
 _symmetry_equiv_pos_as_xyz
 1  'x, y, z'
loop_
 _atom_site_type_symbol
 _atom_site_label
 _atom_site_symmetry_multiplicity
 _atom_site_fract_x
 _atom_site_fract_y
 _atom_site_fract_z
 _atom_site_fract_occupancy
 K  K1  1  0.68329  0.51662  0.92855  1
 K  K2  1  0.49773  0.67705  0.48334  1
 K  K3  1  0.31671  0.01662  0.57145  1
 K  K4  1  0.50227  0.32295  0.51666  1
 K  K5  1  0.49773  0.82295  0.98334  1
 K  K6  1  0.68329  0.98338  0.42855  1
 K  K7  1  0.50227  0.17705  0.01666  1
 K  K8  1  0.31671  0.48338  0.07145  1
 Na  Na1  1  0.01580  0.76137  0.29590  1
 Na  Na2  1  0.98420  0.23863  0.70410  1
 Na  Na3  1  0.01580  0.73863  0.79590  1
 Na  Na4  1  0.98420  0.26137  0.20410  1
 O  O1  1  0.22239  0.65404  0.65661  1
 O  O2  1  0.77761  0.34596  0.34339  1
 O  O3  1  0.77761  0.15404  0.84339  1
 O  O4  1  0.25624  0.37016  0.70195  1
 O  O5  1  0.88738  0.99197  0.20163  1
 O  O6  1  0.11262  0.49197  0.29837  1
 O  O7  1  0.25624  0.12984  0.20195  1
 O  O8  1  0.74376  0.62984  0.29805  1
 O  O9  1  0.74376  0.87016  0.79805  1
 O  O10  1  0.22239  0.84596  0.15661  1
 O  O11  1  0.88738  0.50803  0.70163  1
 O  O12  1  0.11262  0.00803  0.79837  1
 Te  Te1  1  0.00000  0.00000  0.00000  1
 Te  Te2  1  0.00000  0.50000  0.50000  1
