CIF file written using JARVIS-Tools package.
data_TiAu4
_symmetry_space_group_name_H-M  'I4/m'
_cell_length_a       4.00891
_cell_length_b       5.05931
_cell_length_c       5.05931
_cell_angle_alpha    80.9691
_cell_angle_beta     66.6597
_cell_angle_gamma    66.6597

_symmetry_Int_Tables_number  87
_chemical_formula_structural  TiAu4
_chemical_formula_sum  TiAu4
_cell_volume  86.50746460791868
_cell_formula_units_Z  1
loop_
  _symmetry_equiv_pos_site_id
 _symmetry_equiv_pos_as_xyz
 1  'x, y, z'
loop_
 _atom_site_type_symbol
 _atom_site_label
 _atom_site_symmetry_multiplicity
 _atom_site_fract_x
 _atom_site_fract_y
 _atom_site_fract_z
 _atom_site_fract_occupancy
 Au  Au1  1  0.60510  0.60166  0.18815  1
 Au  Au2  1  0.39490  0.39834  0.81185  1
 Au  Au3  1  0.79324  0.81185  0.60166  1
 Au  Au4  1  0.20676  0.18815  0.39834  1
 Ti  Ti1  1  0.00000  0.00000  0.00000  1
