CIF file written using JARVIS-Tools package.
data_Sn2Pd3Au
_symmetry_space_group_name_H-M  'P-3m1'
_cell_length_a       4.62719
_cell_length_b       4.6272
_cell_length_c       5.78539
_cell_angle_alpha    90
_cell_angle_beta     90
_cell_angle_gamma    120

_symmetry_Int_Tables_number  164
_chemical_formula_structural  Sn2Pd3Au
_chemical_formula_sum  Sn2Pd3Au
_cell_volume  107.27508084463943
_cell_formula_units_Z  1
loop_
  _symmetry_equiv_pos_site_id
 _symmetry_equiv_pos_as_xyz
 1  'x, y, z'
loop_
 _atom_site_type_symbol
 _atom_site_label
 _atom_site_symmetry_multiplicity
 _atom_site_fract_x
 _atom_site_fract_y
 _atom_site_fract_z
 _atom_site_fract_occupancy
 Au  Au1  1  0.00000  0.00000  0.50000  1
 Pd  Pd1  1  0.33333  0.66667  0.70988  1
 Pd  Pd2  1  0.66667  0.33333  0.29012  1
 Pd  Pd3  1  0.00000  0.00000  0.00000  1
 Sn  Sn1  1  0.33333  0.66667  0.20856  1
 Sn  Sn2  1  0.66667  0.33333  0.79144  1
