CIF file written using JARVIS-Tools package.
data_Sm2AlAg3
_symmetry_space_group_name_H-M  'Cm'
_cell_length_a       5.8152
_cell_length_b       5.81519
_cell_length_c       7.16041
_cell_angle_alpha    53.3882
_cell_angle_beta     53.3882
_cell_angle_gamma    47.2673

_symmetry_Int_Tables_number  8
_chemical_formula_structural  Sm2AlAg3
_chemical_formula_sum  Sm2AlAg3
_cell_volume  135.00981372297053
_cell_formula_units_Z  1
loop_
  _symmetry_equiv_pos_site_id
 _symmetry_equiv_pos_as_xyz
 1  'x, y, z'
loop_
 _atom_site_type_symbol
 _atom_site_label
 _atom_site_symmetry_multiplicity
 _atom_site_fract_x
 _atom_site_fract_y
 _atom_site_fract_z
 _atom_site_fract_occupancy
 Ag  Ag1  1  0.15007  0.15007  0.88898  1
 Ag  Ag2  1  0.17727  0.17727  0.28153  1
 Ag  Ag3  1  0.83996  0.83996  0.71204  1
 Al  Al1  1  0.82964  0.82964  0.11572  1
 Sm  Sm1  1  0.46101  0.46101  0.29467  1
 Sm  Sm2  1  0.54205  0.54205  0.70706  1
