CIF file written using JARVIS-Tools package.
data_SrWN3
_symmetry_space_group_name_H-M  'C2/m'
_cell_length_a       3.8315
_cell_length_b       6.47425
_cell_length_c       6.7082
_cell_angle_alpha    103.124
_cell_angle_beta     90
_cell_angle_gamma    107.212

_symmetry_Int_Tables_number  12
_chemical_formula_structural  SrWN3
_chemical_formula_sum  Sr2W2N6
_cell_volume  154.39604517039447
_cell_formula_units_Z  2
loop_
  _symmetry_equiv_pos_site_id
 _symmetry_equiv_pos_as_xyz
 1  'x, y, z'
loop_
 _atom_site_type_symbol
 _atom_site_label
 _atom_site_symmetry_multiplicity
 _atom_site_fract_x
 _atom_site_fract_y
 _atom_site_fract_z
 _atom_site_fract_occupancy
 N  N1  1  0.15438  0.30875  0.60156  1
 N  N2  1  0.00238  0.00476  0.10625  1
 N  N3  1  -0.00238  -0.00476  0.89375  1
 N  N4  1  0.32038  0.64076  0.02373  1
 N  N5  1  0.67962  0.35924  0.97627  1
 N  N6  1  0.84562  0.69125  0.39844  1
 Sr  Sr1  1  0.38255  0.76509  0.66548  1
 Sr  Sr2  1  0.61745  0.23491  0.33452  1
 W  W1  1  0.15197  0.30394  0.86807  1
 W  W2  1  0.84803  0.69606  0.13193  1
