CIF file written using JARVIS-Tools package.
data_YbBO3
_symmetry_space_group_name_H-M  'Ama2'
_cell_length_a       3.88439
_cell_length_b       3.88439
_cell_length_c       8.51099
_cell_angle_alpha    90
_cell_angle_beta     90
_cell_angle_gamma    109.291

_symmetry_Int_Tables_number  40
_chemical_formula_structural  YbBO3
_chemical_formula_sum  Yb2B2O6
_cell_volume  121.20744226076258
_cell_formula_units_Z  2
loop_
  _symmetry_equiv_pos_site_id
 _symmetry_equiv_pos_as_xyz
 1  'x, y, z'
loop_
 _atom_site_type_symbol
 _atom_site_label
 _atom_site_symmetry_multiplicity
 _atom_site_fract_x
 _atom_site_fract_y
 _atom_site_fract_z
 _atom_site_fract_occupancy
 B  B1  1  0.51109  0.22756  0.25000  1
 B  B2  1  0.22756  0.51109  0.75000  1
 O  O1  1  0.67522  0.34018  0.39229  1
 O  O2  1  0.34018  0.67522  0.60771  1
 O  O3  1  0.34018  0.67522  0.89229  1
 O  O4  1  0.67522  0.34018  0.10771  1
 O  O5  1  0.17055  -0.02503  0.25000  1
 O  O6  1  -0.02503  0.17055  0.75000  1
 Yb  Yb1  1  0.91589  0.91589  0.50000  1
 Yb  Yb2  1  0.91589  0.91589  0.00000  1
