CIF file written using JARVIS-Tools package.
data_BH6N
_symmetry_space_group_name_H-M  'Pmn2_1'
_cell_length_a       5.36042
_cell_length_b       4.97548
_cell_length_c       4.72799
_cell_angle_alpha    90
_cell_angle_beta     90
_cell_angle_gamma    90

_symmetry_Int_Tables_number  31
_chemical_formula_structural  BH6N
_chemical_formula_sum  B2H2N2
_cell_volume  126.0987217828266
_cell_formula_units_Z  2
loop_
  _symmetry_equiv_pos_site_id
 _symmetry_equiv_pos_as_xyz
 1  'x, y, z'
loop_
 _atom_site_type_symbol
 _atom_site_label
 _atom_site_symmetry_multiplicity
 _atom_site_fract_x
 _atom_site_fract_y
 _atom_site_fract_z
 _atom_site_fract_occupancy
 B  B1  1  0.50000  0.18869  0.67562  1
 B  B2  1  0.00000  0.68869  0.32438  1
 H  H1  1  0.50000  0.16201  0.41686  1
 H  H2  1  0.50000  0.54331  0.95519  1
 H  H3  1  0.00000  0.04331  0.04481  1
 H  H4  1  0.81214  0.58863  0.22231  1
 H  H5  1  0.18786  0.58863  0.22231  1
 H  H6  1  0.84439  0.09556  0.34280  1
 H  H7  1  0.15561  0.09556  0.34280  1
 H  H8  1  0.00000  0.66201  0.58314  1
 H  H9  1  0.65561  0.59556  0.65720  1
 H  H10  1  0.34439  0.59556  0.65720  1
 H  H11  1  0.68786  0.08863  0.77769  1
 H  H12  1  0.31214  0.08863  0.77769  1
 N  N1  1  0.50000  0.50281  0.74162  1
 N  N2  1  0.00000  0.00281  0.25838  1
