CIF file written using JARVIS-Tools package.
data_SmPO4
_symmetry_space_group_name_H-M  'P2_1/c'
_cell_length_a       6.39347
_cell_length_b       6.91751
_cell_length_c       8.08141
_cell_angle_alpha    90
_cell_angle_beta     126.257
_cell_angle_gamma    90

_symmetry_Int_Tables_number  14
_chemical_formula_structural  SmPO4
_chemical_formula_sum  Sm4P4O6
_cell_volume  288.21186832152637
_cell_formula_units_Z  4
loop_
  _symmetry_equiv_pos_site_id
 _symmetry_equiv_pos_as_xyz
 1  'x, y, z'
loop_
 _atom_site_type_symbol
 _atom_site_label
 _atom_site_symmetry_multiplicity
 _atom_site_fract_x
 _atom_site_fract_y
 _atom_site_fract_z
 _atom_site_fract_occupancy
 O  O1  1  0.18750  0.00296  0.74975  1
 O  O2  1  0.40773  0.71020  0.62075  1
 O  O3  1  0.59227  0.21020  0.87925  1
 O  O4  1  0.59227  0.28980  0.37925  1
 O  O5  1  0.11964  0.33521  0.61714  1
 O  O6  1  0.65939  0.60242  0.97232  1
 O  O7  1  0.34061  0.10242  0.52768  1
 O  O8  1  0.40773  0.78980  0.12075  1
 O  O9  1  0.65939  0.89758  0.47232  1
 O  O10  1  0.81250  0.99704  0.25025  1
 O  O11  1  0.18750  0.49704  0.24975  1
 O  O12  1  0.88036  0.83521  0.88286  1
 O  O13  1  0.81250  0.50296  0.75025  1
 O  O14  1  0.88036  0.66479  0.38286  1
 O  O15  1  0.11964  0.16479  0.11714  1
 O  O16  1  0.34061  0.39758  0.02768  1
 P  P1  1  0.68840  0.83876  0.30190  1
 P  P2  1  0.31160  0.33876  0.19810  1
 P  P3  1  0.31160  0.16124  0.69810  1
 P  P4  1  0.68840  0.66124  0.80190  1
 Sm  Sm1  1  0.18338  0.84478  0.28118  1
 Sm  Sm2  1  0.81662  0.34478  0.21882  1
 Sm  Sm3  1  0.81662  0.15522  0.71882  1
 Sm  Sm4  1  0.18338  0.65522  0.78118  1
