CIF file written using JARVIS-Tools package.
data_Ta3TiB4
_symmetry_space_group_name_H-M  'Pmm2'
_cell_length_a       3.13195
_cell_length_b       3.2867
_cell_length_c       8.68711
_cell_angle_alpha    90
_cell_angle_beta     90
_cell_angle_gamma    90

_symmetry_Int_Tables_number  25
_chemical_formula_structural  Ta3TiB4
_chemical_formula_sum  Ta3TiB4
_cell_volume  89.42322704042361
_cell_formula_units_Z  1
loop_
  _symmetry_equiv_pos_site_id
 _symmetry_equiv_pos_as_xyz
 1  'x, y, z'
loop_
 _atom_site_type_symbol
 _atom_site_label
 _atom_site_symmetry_multiplicity
 _atom_site_fract_x
 _atom_site_fract_y
 _atom_site_fract_z
 _atom_site_fract_occupancy
 B  B1  1  0.00000  0.00000  0.43811  1
 B  B2  1  0.00000  0.50000  0.94549  1
 B  B3  1  0.50000  0.50000  0.06122  1
 B  B4  1  0.50000  0.00000  0.55728  1
 Ta  Ta1  1  0.00000  0.50000  0.64582  1
 Ta  Ta2  1  0.50000  0.50000  0.34978  1
 Ta  Ta3  1  0.50000  0.00000  0.85694  1
 Ti  Ti1  1  0.00000  0.00000  0.14536  1
