CIF file written using JARVIS-Tools package.
data_B
_symmetry_space_group_name_H-M  'P4_2/nnm'
_cell_length_a       5.01555
_cell_length_b       8.64592
_cell_length_c       8.64592
_cell_angle_alpha    90
_cell_angle_beta     90
_cell_angle_gamma    90

_symmetry_Int_Tables_number  134
_chemical_formula_structural  B
_chemical_formula_sum  B48
_cell_volume  374.9217045434414
_cell_formula_units_Z  48
loop_
  _symmetry_equiv_pos_site_id
 _symmetry_equiv_pos_as_xyz
 1  'x, y, z'
loop_
 _atom_site_type_symbol
 _atom_site_label
 _atom_site_symmetry_multiplicity
 _atom_site_fract_x
 _atom_site_fract_y
 _atom_site_fract_z
 _atom_site_fract_occupancy
 B  B1  1  0.90410  0.41622  0.82894  1
 B  B2  1  0.59063  0.27314  0.58281  1
 B  B3  1  0.61857  0.87403  0.12597  1
 B  B4  1  0.88143  0.62597  0.37403  1
 B  B5  1  0.90410  0.17106  0.58378  1
 B  B6  1  0.59063  0.72686  0.41719  1
 B  B7  1  0.40937  0.41719  0.27314  1
 B  B8  1  0.09590  0.17106  0.41622  1
 B  B9  1  0.40937  0.27314  0.41719  1
 B  B10  1  0.58044  0.75535  0.75535  1
 B  B11  1  0.40937  0.72686  0.58281  1
 B  B12  1  0.91956  0.25535  0.25535  1
 B  B13  1  0.90410  0.58378  0.17106  1
 B  B14  1  0.41956  0.75535  0.24465  1
 B  B15  1  0.90410  0.82894  0.41622  1
 B  B16  1  0.09063  0.91719  0.77314  1
 B  B17  1  0.08044  0.74465  0.25535  1
 B  B18  1  0.90937  0.77314  0.08281  1
 B  B19  1  0.59590  0.08378  0.67106  1
 B  B20  1  0.09063  0.08281  0.22686  1
 B  B21  1  0.40937  0.58281  0.72686  1
 B  B22  1  0.40410  0.08378  0.32894  1
 B  B23  1  0.40410  0.67106  0.91622  1
 B  B24  1  0.58044  0.24465  0.24465  1
 B  B25  1  0.90937  0.22686  0.91719  1
 B  B26  1  0.59590  0.67106  0.08378  1
 B  B27  1  0.88143  0.37403  0.62597  1
 B  B28  1  0.59590  0.32894  0.91622  1
 B  B29  1  0.08044  0.25535  0.74465  1
 B  B30  1  0.38143  0.12597  0.12597  1
 B  B31  1  0.91956  0.74465  0.74465  1
 B  B32  1  0.90937  0.91719  0.22686  1
 B  B33  1  0.90937  0.08281  0.77314  1
 B  B34  1  0.59063  0.58281  0.27314  1
 B  B35  1  0.09590  0.58378  0.82894  1
 B  B36  1  0.09063  0.77314  0.91719  1
 B  B37  1  0.59063  0.41719  0.72686  1
 B  B38  1  0.40410  0.91622  0.67106  1
 B  B39  1  0.09590  0.82894  0.58378  1
 B  B40  1  0.11857  0.62597  0.62597  1
 B  B41  1  0.09590  0.41622  0.17106  1
 B  B42  1  0.41956  0.24465  0.75535  1
 B  B43  1  0.61857  0.12597  0.87403  1
 B  B44  1  0.40410  0.32894  0.08378  1
 B  B45  1  0.11857  0.37403  0.37403  1
 B  B46  1  0.09063  0.22686  0.08281  1
 B  B47  1  0.38143  0.87403  0.87403  1
 B  B48  1  0.59590  0.91622  0.32894  1
