CIF file written using JARVIS-Tools package.
data_Mn2O3
_symmetry_space_group_name_H-M  'R-3c'
_cell_length_a       4.94104
_cell_length_b       4.93843
_cell_length_c       5.35848
_cell_angle_alpha    62.5589
_cell_angle_beta     90.0152
_cell_angle_gamma    60.0199

_symmetry_Int_Tables_number  167
_chemical_formula_structural  Mn2O3
_chemical_formula_sum  Mn4O6
_cell_volume  95.88767096530336
_cell_formula_units_Z  2
loop_
  _symmetry_equiv_pos_site_id
 _symmetry_equiv_pos_as_xyz
 1  'x, y, z'
loop_
 _atom_site_type_symbol
 _atom_site_label
 _atom_site_symmetry_multiplicity
 _atom_site_fract_x
 _atom_site_fract_y
 _atom_site_fract_z
 _atom_site_fract_occupancy
 Mn  Mn1  1  0.65355  0.69298  0.96047  1
 Mn  Mn2  1  0.84644  0.30704  0.53954  1
 Mn  Mn3  1  0.15355  0.69296  0.46046  1
 Mn  Mn4  1  0.34645  0.30702  0.03954  1
 O  O1  1  0.56047  0.50003  0.74998  1
 O  O2  1  0.74998  0.81055  0.24998  1
 O  O3  1  0.06043  0.18954  0.25000  1
 O  O4  1  0.93957  0.81046  0.75000  1
 O  O5  1  0.25002  0.18945  0.75002  1
 O  O6  1  0.43952  0.49998  0.25002  1
