CIF file written using JARVIS-Tools package.
data_La2Al3GaPd4
_symmetry_space_group_name_H-M  'P-4m2'
_cell_length_a       4.45622
_cell_length_b       4.45622
_cell_length_c       10.0185
_cell_angle_alpha    90
_cell_angle_beta     90
_cell_angle_gamma    90

_symmetry_Int_Tables_number  115
_chemical_formula_structural  La2Al3GaPd4
_chemical_formula_sum  La2Al3GaPd4
_cell_volume  198.94675637419286
_cell_formula_units_Z  1
loop_
  _symmetry_equiv_pos_site_id
 _symmetry_equiv_pos_as_xyz
 1  'x, y, z'
loop_
 _atom_site_type_symbol
 _atom_site_label
 _atom_site_symmetry_multiplicity
 _atom_site_fract_x
 _atom_site_fract_y
 _atom_site_fract_z
 _atom_site_fract_occupancy
 Al  Al1  1  0.00000  0.00000  0.50000  1
 Al  Al2  1  0.50000  0.00000  0.87995  1
 Al  Al3  1  0.00000  0.50000  0.12005  1
 Ga  Ga1  1  0.50000  0.50000  0.50000  1
 La  La1  1  0.50000  0.00000  0.24937  1
 La  La2  1  0.00000  0.50000  0.75063  1
 Pd  Pd1  1  0.50000  0.50000  0.00000  1
 Pd  Pd2  1  0.00000  0.00000  0.00000  1
 Pd  Pd3  1  0.50000  0.00000  0.63056  1
 Pd  Pd4  1  0.00000  0.50000  0.36944  1
