CIF file written using JARVIS-Tools package.
data_TlAsF6
_symmetry_space_group_name_H-M  'R-3'
_cell_length_a       4.99736
_cell_length_b       4.99736
_cell_length_c       4.99736
_cell_angle_alpha    96.8851
_cell_angle_beta     96.8851
_cell_angle_gamma    96.8852

_symmetry_Int_Tables_number  148
_chemical_formula_structural  TlAsF6
_chemical_formula_sum  TlAsF6
_cell_volume  121.86199175475755
_cell_formula_units_Z  1
loop_
  _symmetry_equiv_pos_site_id
 _symmetry_equiv_pos_as_xyz
 1  'x, y, z'
loop_
 _atom_site_type_symbol
 _atom_site_label
 _atom_site_symmetry_multiplicity
 _atom_site_fract_x
 _atom_site_fract_y
 _atom_site_fract_z
 _atom_site_fract_occupancy
 As  As1  1  0.50000  0.50000  0.50000  1
 F  F1  1  0.57724  0.20372  0.30672  1
 F  F2  1  0.30672  0.57724  0.20372  1
 F  F3  1  0.69328  0.42276  0.79628  1
 F  F4  1  0.20372  0.30672  0.57724  1
 F  F5  1  0.79628  0.69328  0.42276  1
 F  F6  1  0.42276  0.79628  0.69328  1
 Tl  Tl1  1  0.00000  0.00000  0.00000  1
