CIF file written using JARVIS-Tools package.
data_Ba2TiVS6
_symmetry_space_group_name_H-M  'P-3m1'
_cell_length_a       6.77618
_cell_length_b       6.77618
_cell_length_c       5.64604
_cell_angle_alpha    90
_cell_angle_beta     90
_cell_angle_gamma    120

_symmetry_Int_Tables_number  164
_chemical_formula_structural  Ba2TiVS6
_chemical_formula_sum  Ba2TiVS6
_cell_volume  224.51436764417946
_cell_formula_units_Z  1
loop_
  _symmetry_equiv_pos_site_id
 _symmetry_equiv_pos_as_xyz
 1  'x, y, z'
loop_
 _atom_site_type_symbol
 _atom_site_label
 _atom_site_symmetry_multiplicity
 _atom_site_fract_x
 _atom_site_fract_y
 _atom_site_fract_z
 _atom_site_fract_occupancy
 Ba  Ba1  1  0.33333  0.66667  0.75223  1
 Ba  Ba2  1  0.66667  0.33333  0.24777  1
 S  S1  1  0.16633  0.83367  0.24375  1
 S  S2  1  0.16633  0.33267  0.24375  1
 S  S3  1  0.66733  0.83367  0.24375  1
 S  S4  1  0.83367  0.16633  0.75625  1
 S  S5  1  0.83367  0.66733  0.75625  1
 S  S6  1  0.33267  0.16633  0.75625  1
 Ti  Ti1  1  0.00000  0.00000  0.50000  1
 V  V1  1  0.00000  0.00000  0.00000  1
