CIF file written using JARVIS-Tools package.
data_RbMgPO4
_symmetry_space_group_name_H-M  'Pna2_1'
_cell_length_a       5.44818
_cell_length_b       8.75342
_cell_length_c       9.35722
_cell_angle_alpha    90
_cell_angle_beta     90
_cell_angle_gamma    90

_symmetry_Int_Tables_number  33
_chemical_formula_structural  RbMgPO4
_chemical_formula_sum  Rb4Mg4P4O6
_cell_volume  446.24789054574285
_cell_formula_units_Z  4
loop_
  _symmetry_equiv_pos_site_id
 _symmetry_equiv_pos_as_xyz
 1  'x, y, z'
loop_
 _atom_site_type_symbol
 _atom_site_label
 _atom_site_symmetry_multiplicity
 _atom_site_fract_x
 _atom_site_fract_y
 _atom_site_fract_z
 _atom_site_fract_occupancy
 Mg  Mg1  1  0.24652  0.31076  0.58026  1
 Mg  Mg2  1  0.24652  0.81076  0.91974  1
 Mg  Mg3  1  0.74652  0.18924  0.08026  1
 Mg  Mg4  1  0.74652  0.68924  0.41974  1
 O  O1  1  0.84871  0.74356  0.22917  1
 O  O2  1  0.98432  0.77050  0.55776  1
 O  O3  1  0.92007  0.23457  0.53644  1
 O  O4  1  0.23563  0.52964  0.57805  1
 O  O5  1  0.23563  0.02964  0.92195  1
 O  O6  1  0.34871  0.75644  0.72917  1
 O  O7  1  0.34871  0.25644  0.77083  1
 O  O8  1  0.98432  0.27050  0.94224  1
 O  O9  1  0.42007  0.76543  0.46356  1
 O  O10  1  0.48432  0.72950  0.05776  1
 O  O11  1  0.48432  0.22950  0.44224  1
 O  O12  1  0.92007  0.73457  0.96356  1
 O  O13  1  0.73563  0.47036  0.42195  1
 O  O14  1  0.42007  0.26543  0.03644  1
 O  O15  1  0.84871  0.24356  0.27083  1
 O  O16  1  0.73563  0.97036  0.07805  1
 P  P1  1  0.24623  0.70523  0.58262  1
 P  P2  1  0.24623  0.20523  0.91738  1
 P  P3  1  0.74623  0.79477  0.08262  1
 P  P4  1  0.74623  0.29477  0.41738  1
 Rb  Rb1  1  0.73072  0.50252  0.77935  1
 Rb  Rb2  1  0.73072  0.00252  0.72065  1
 Rb  Rb3  1  0.23072  0.99748  0.27935  1
 Rb  Rb4  1  0.23072  0.49748  0.22065  1
