CIF file written using JARVIS-Tools package.
data_NbMo3C4
_symmetry_space_group_name_H-M  'R-3m'
_cell_length_a       10.3419
_cell_length_b       10.3419
_cell_length_c       10.3419
_cell_angle_alpha    17.347
_cell_angle_beta     17.347
_cell_angle_gamma    17.347

_symmetry_Int_Tables_number  166
_chemical_formula_structural  NbMo3C4
_chemical_formula_sum  NbMo3C4
_cell_volume  85.80718420126249
_cell_formula_units_Z  1
loop_
  _symmetry_equiv_pos_site_id
 _symmetry_equiv_pos_as_xyz
 1  'x, y, z'
loop_
 _atom_site_type_symbol
 _atom_site_label
 _atom_site_symmetry_multiplicity
 _atom_site_fract_x
 _atom_site_fract_y
 _atom_site_fract_z
 _atom_site_fract_occupancy
 C  C1  1  0.87422  0.87422  0.87422  1
 C  C2  1  0.12578  0.12578  0.12578  1
 C  C3  1  0.37677  0.37677  0.37677  1
 C  C4  1  0.62323  0.62323  0.62323  1
 Mo  Mo1  1  0.24955  0.24955  0.24955  1
 Mo  Mo2  1  0.50000  0.50000  0.50000  1
 Mo  Mo3  1  0.75045  0.75045  0.75045  1
 Nb  Nb1  1  0.00000  0.00000  0.00000  1
