CIF file written using JARVIS-Tools package.
data_InHgTe2
_symmetry_space_group_name_H-M  'R3m'
_cell_length_a       8.02988
_cell_length_b       8.02988
_cell_length_c       8.02988
_cell_angle_alpha    35.6604
_cell_angle_beta     35.6604
_cell_angle_gamma    35.6604

_symmetry_Int_Tables_number  160
_chemical_formula_structural  InHgTe2
_chemical_formula_sum  InHgTe2
_cell_volume  157.29810680358437
_cell_formula_units_Z  1
loop_
  _symmetry_equiv_pos_site_id
 _symmetry_equiv_pos_as_xyz
 1  'x, y, z'
loop_
 _atom_site_type_symbol
 _atom_site_label
 _atom_site_symmetry_multiplicity
 _atom_site_fract_x
 _atom_site_fract_y
 _atom_site_fract_z
 _atom_site_fract_occupancy
 Hg  Hg1  1  0.00647  0.00647  0.00647  1
 In  In1  1  0.50047  0.50047  0.50047  1
 Te  Te1  1  0.87289  0.87289  0.87289  1
 Te  Te2  1  0.37017  0.37017  0.37017  1
