CIF file written using JARVIS-Tools package.
data_Zn2InCuSe4
_symmetry_space_group_name_H-M  'I-42m'
_cell_length_a       7.10744
_cell_length_b       7.10744
_cell_length_c       7.10744
_cell_angle_alpha    131.913
_cell_angle_beta     131.913
_cell_angle_gamma    70.3667

_symmetry_Int_Tables_number  121
_chemical_formula_structural  Zn2InCuSe4
_chemical_formula_sum  Zn2InCuSe4
_cell_volume  194.84825864373158
_cell_formula_units_Z  1
loop_
  _symmetry_equiv_pos_site_id
 _symmetry_equiv_pos_as_xyz
 1  'x, y, z'
loop_
 _atom_site_type_symbol
 _atom_site_label
 _atom_site_symmetry_multiplicity
 _atom_site_fract_x
 _atom_site_fract_y
 _atom_site_fract_z
 _atom_site_fract_occupancy
 Cu  Cu1  1  0.00000  0.00000  0.00000  1
 In  In1  1  0.50000  0.50000  -0.00000  1
 Se  Se1  1  0.36301  0.36301  0.46945  1
 Se  Se2  1  0.10644  0.63699  -0.00000  1
 Se  Se3  1  0.89356  0.89356  0.53055  1
 Se  Se4  1  0.63699  0.10644  0.00000  1
 Zn  Zn1  1  0.75000  0.25000  0.50000  1
 Zn  Zn2  1  0.25000  0.75000  0.50000  1
