CIF file written using JARVIS-Tools package.
data_GaP
_symmetry_space_group_name_H-M  'I-4m2'
_cell_length_a       2.89348
_cell_length_b       3.73762
_cell_length_c       3.73775
_cell_angle_alpha    81.4284
_cell_angle_beta     67.2532
_cell_angle_gamma    67.2499

_symmetry_Int_Tables_number  119
_chemical_formula_structural  GaP
_chemical_formula_sum  GaP
_cell_volume  34.37863356359438
_cell_formula_units_Z  1
loop_
  _symmetry_equiv_pos_site_id
 _symmetry_equiv_pos_as_xyz
 1  'x, y, z'
loop_
 _atom_site_type_symbol
 _atom_site_label
 _atom_site_symmetry_multiplicity
 _atom_site_fract_x
 _atom_site_fract_y
 _atom_site_fract_z
 _atom_site_fract_occupancy
 Ga  Ga1  1  0.66306  0.48978  0.50284  1
 P  P1  1  0.91145  0.98975  0.00280  1
