CIF file written using JARVIS-Tools package.
data_SbTeClO3
_symmetry_space_group_name_H-M  'Pnma'
_cell_length_a       5.45673
_cell_length_b       7.13583
_cell_length_c       11.3074
_cell_angle_alpha    90
_cell_angle_beta     90
_cell_angle_gamma    90

_symmetry_Int_Tables_number  62
_chemical_formula_structural  SbTeClO3
_chemical_formula_sum  Sb4Te4Cl4O2
_cell_volume  440.29011746633023
_cell_formula_units_Z  4
loop_
  _symmetry_equiv_pos_site_id
 _symmetry_equiv_pos_as_xyz
 1  'x, y, z'
loop_
 _atom_site_type_symbol
 _atom_site_label
 _atom_site_symmetry_multiplicity
 _atom_site_fract_x
 _atom_site_fract_y
 _atom_site_fract_z
 _atom_site_fract_occupancy
 Cl  Cl1  1  0.25000  0.89964  0.42608  1
 Cl  Cl2  1  0.25000  0.60036  0.92608  1
 Cl  Cl3  1  0.75000  0.39964  0.07392  1
 Cl  Cl4  1  0.75000  0.10036  0.57392  1
 O  O1  1  0.50234  0.99954  0.87663  1
 O  O2  1  0.49766  0.00046  0.12337  1
 O  O3  1  0.75000  0.70262  0.78181  1
 O  O4  1  0.50234  0.50046  0.37663  1
 O  O5  1  0.99766  0.50046  0.37663  1
 O  O6  1  0.49766  0.49954  0.62337  1
 O  O7  1  0.75000  0.79738  0.28181  1
 O  O8  1  0.00234  0.00046  0.12337  1
 O  O9  1  0.99766  0.99954  0.87663  1
 O  O10  1  0.25000  0.29738  0.21819  1
 O  O11  1  0.25000  0.20262  0.71819  1
 O  O12  1  0.00234  0.49954  0.62337  1
 Sb  Sb1  1  0.25000  0.57988  0.25280  1
 Sb  Sb2  1  0.75000  0.42012  0.74720  1
 Sb  Sb3  1  0.75000  0.07988  0.24720  1
 Sb  Sb4  1  0.25000  0.92012  0.75280  1
 Te  Te1  1  0.25000  0.32659  0.56667  1
 Te  Te2  1  0.25000  0.17341  0.06667  1
 Te  Te3  1  0.75000  0.67341  0.43333  1
 Te  Te4  1  0.75000  0.82659  0.93333  1
