CIF file written using JARVIS-Tools package.
data_Hf4N3
_symmetry_space_group_name_H-M  'R3m'
_cell_length_a       10.7356
_cell_length_b       10.7356
_cell_length_c       10.7356
_cell_angle_alpha    17.0674
_cell_angle_beta     17.0674
_cell_angle_gamma    17.0674

_symmetry_Int_Tables_number  160
_chemical_formula_structural  Hf4N3
_chemical_formula_sum  Hf4N3
_cell_volume  92.98387980219634
_cell_formula_units_Z  1
loop_
  _symmetry_equiv_pos_site_id
 _symmetry_equiv_pos_as_xyz
 1  'x, y, z'
loop_
 _atom_site_type_symbol
 _atom_site_label
 _atom_site_symmetry_multiplicity
 _atom_site_fract_x
 _atom_site_fract_y
 _atom_site_fract_z
 _atom_site_fract_occupancy
 Hf  Hf1  1  0.62564  0.62564  0.62564  1
 Hf  Hf2  1  0.37533  0.37533  0.37533  1
 Hf  Hf3  1  0.79062  0.79062  0.79062  1
 Hf  Hf4  1  0.20635  0.20635  0.20635  1
 N  N1  1  0.50072  0.50072  0.50072  1
 N  N2  1  0.00191  0.00191  0.00191  1
 N  N3  1  0.91444  0.91444  0.91444  1
