CIF file written using JARVIS-Tools package.
data_Sr10P6SO24
_symmetry_space_group_name_H-M  'P-3'
_cell_length_a       9.85688
_cell_length_b       9.85688
_cell_length_c       7.23436
_cell_angle_alpha    90
_cell_angle_beta     90
_cell_angle_gamma    120

_symmetry_Int_Tables_number  147
_chemical_formula_structural  Sr10P6SO24
_chemical_formula_sum  Sr0P6SO24
_cell_volume  608.7094132621914
_cell_formula_units_Z  1
loop_
  _symmetry_equiv_pos_site_id
 _symmetry_equiv_pos_as_xyz
 1  'x, y, z'
loop_
 _atom_site_type_symbol
 _atom_site_label
 _atom_site_symmetry_multiplicity
 _atom_site_fract_x
 _atom_site_fract_y
 _atom_site_fract_z
 _atom_site_fract_occupancy
 O  O1  1  0.15105  0.67117  0.73876  1
 O  O2  1  0.67117  0.52012  0.26124  1
 O  O3  1  0.84895  0.32883  0.26124  1
 O  O4  1  0.42230  0.53480  0.20539  1
 O  O5  1  0.46520  0.88750  0.20539  1
 O  O6  1  0.88750  0.42230  0.79461  1
 O  O7  1  0.53480  0.11250  0.79461  1
 O  O8  1  0.90031  0.61858  0.56870  1
 O  O9  1  0.93469  0.68954  0.90564  1
 O  O10  1  0.31046  0.24515  0.90564  1
 O  O11  1  0.75485  0.06531  0.90564  1
 O  O12  1  0.09969  0.38142  0.43130  1
 O  O13  1  0.61858  0.71828  0.43130  1
 O  O14  1  0.28172  0.90031  0.43130  1
 O  O15  1  0.11250  0.57770  0.20539  1
 O  O16  1  0.38142  0.28172  0.56870  1
 O  O17  1  0.71828  0.09969  0.56870  1
 O  O18  1  0.32883  0.47988  0.73876  1
 O  O19  1  0.47988  0.15105  0.26124  1
 O  O20  1  0.06531  0.31046  0.09436  1
 O  O21  1  0.24515  0.93469  0.09436  1
 O  O22  1  0.52012  0.84895  0.73876  1
 O  O23  1  0.57770  0.46520  0.79461  1
 O  O24  1  0.68954  0.75485  0.09436  1
 P  P1  1  0.36966  0.97097  0.24726  1
 P  P2  1  0.39869  0.36966  0.75274  1
 P  P3  1  0.97097  0.60131  0.75274  1
 P  P4  1  0.63034  0.02903  0.75274  1
 P  P5  1  0.02903  0.39869  0.24726  1
 P  P6  1  0.60131  0.63034  0.24726  1
 S  S1  1  0.00000  0.00000  0.50000  1
 Sr  Sr1  1  0.01406  0.25760  0.74232  1
 Sr  Sr2  1  0.74240  0.75646  0.74232  1
 Sr  Sr3  1  0.98594  0.74240  0.25768  1
 Sr  Sr4  1  0.75646  0.01406  0.25768  1
 Sr  Sr5  1  0.66667  0.33333  0.02112  1
 Sr  Sr6  1  0.33333  0.66667  0.48102  1
 Sr  Sr7  1  0.66667  0.33333  0.51898  1
 Sr  Sr8  1  0.33333  0.66667  0.97888  1
 Sr  Sr9  1  0.25760  0.24354  0.25768  1
 Sr  Sr10  1  0.24354  0.98594  0.74232  1
