CIF file written using JARVIS-Tools package.
data_Dy2V2O7
_symmetry_space_group_name_H-M  'Fd-3m'
_cell_length_a       7.10654
_cell_length_b       7.10652
_cell_length_c       7.10658
_cell_angle_alpha    60.0001
_cell_angle_beta     59.9995
_cell_angle_gamma    60.0001

_symmetry_Int_Tables_number  227
_chemical_formula_structural  Dy2V2O7
_chemical_formula_sum  Dy4V4O4
_cell_volume  253.7814126276696
_cell_formula_units_Z  2
loop_
  _symmetry_equiv_pos_site_id
 _symmetry_equiv_pos_as_xyz
 1  'x, y, z'
loop_
 _atom_site_type_symbol
 _atom_site_label
 _atom_site_symmetry_multiplicity
 _atom_site_fract_x
 _atom_site_fract_y
 _atom_site_fract_z
 _atom_site_fract_occupancy
 Dy  Dy1  1  0.50000  -0.00000  0.00000  1
 Dy  Dy2  1  1.00000  0.00000  1.00000  1
 Dy  Dy3  1  1.00000  0.00000  0.50000  1
 Dy  Dy4  1  0.00000  0.50000  1.00000  1
 O  O1  1  0.57851  0.17149  0.57851  1
 O  O2  1  0.17149  0.57851  0.57851  1
 O  O3  1  0.82851  0.42149  0.42149  1
 O  O4  1  0.12500  0.12500  0.12500  1
 O  O5  1  0.17149  0.17149  0.57851  1
 O  O6  1  0.17149  0.57851  0.17149  1
 O  O7  1  0.87500  0.87500  0.87500  1
 O  O8  1  0.57851  0.17149  0.17149  1
 O  O9  1  0.42149  0.82851  0.82851  1
 O  O10  1  0.82851  0.82851  0.42149  1
 O  O11  1  0.57851  0.57851  0.17149  1
 O  O12  1  0.42149  0.82851  0.42149  1
 O  O13  1  0.82851  0.42149  0.82851  1
 O  O14  1  0.42149  0.42149  0.82851  1
 V  V1  1  0.50000  0.50000  0.50000  1
 V  V2  1  0.50000  0.00000  0.50000  1
 V  V3  1  0.50000  0.50000  -0.00000  1
 V  V4  1  0.00000  0.50000  0.50000  1
