CIF file written using JARVIS-Tools package.
data_Zr5Co4Ni
_symmetry_space_group_name_H-M  'P4/mmm'
_cell_length_a       3.17131
_cell_length_b       3.17131
_cell_length_c       15.8935
_cell_angle_alpha    90
_cell_angle_beta     90
_cell_angle_gamma    90

_symmetry_Int_Tables_number  123
_chemical_formula_structural  Zr5Co4Ni
_chemical_formula_sum  Zr5Co4Ni
_cell_volume  159.8442818773779
_cell_formula_units_Z  1
loop_
  _symmetry_equiv_pos_site_id
 _symmetry_equiv_pos_as_xyz
 1  'x, y, z'
loop_
 _atom_site_type_symbol
 _atom_site_label
 _atom_site_symmetry_multiplicity
 _atom_site_fract_x
 _atom_site_fract_y
 _atom_site_fract_z
 _atom_site_fract_occupancy
 Co  Co1  1  0.00000  0.00000  0.20313  1
 Co  Co2  1  0.00000  0.00000  0.40110  1
 Co  Co3  1  0.00000  0.00000  0.59890  1
 Co  Co4  1  0.00000  0.00000  0.79687  1
 Ni  Ni1  1  0.00000  0.00000  0.00000  1
 Zr  Zr1  1  0.50000  0.50000  0.10278  1
 Zr  Zr2  1  0.50000  0.50000  0.30151  1
 Zr  Zr3  1  0.50000  0.50000  0.50000  1
 Zr  Zr4  1  0.50000  0.50000  0.69849  1
 Zr  Zr5  1  0.50000  0.50000  0.89722  1
