CIF file written using JARVIS-Tools package.
data_C
_symmetry_space_group_name_H-M  'Cmmm'
_cell_length_a       3.6726
_cell_length_b       3.6726
_cell_length_c       6.11543
_cell_angle_alpha    90
_cell_angle_beta     90
_cell_angle_gamma    96.0473

_symmetry_Int_Tables_number  65
_chemical_formula_structural  C
_chemical_formula_sum  C8
_cell_volume  82.02596083045059
_cell_formula_units_Z  8
loop_
  _symmetry_equiv_pos_site_id
 _symmetry_equiv_pos_as_xyz
 1  'x, y, z'
loop_
 _atom_site_type_symbol
 _atom_site_label
 _atom_site_symmetry_multiplicity
 _atom_site_fract_x
 _atom_site_fract_y
 _atom_site_fract_z
 _atom_site_fract_occupancy
 C  C1  1  0.50000  -0.00000  0.11159  1
 C  C2  1  0.12590  0.87410  0.79923  1
 C  C3  1  0.12590  0.87410  0.20077  1
 C  C4  1  -0.00000  0.50000  0.88841  1
 C  C5  1  -0.00000  0.50000  0.11159  1
 C  C6  1  0.50000  -0.00000  0.88841  1
 C  C7  1  0.87410  0.12590  0.79923  1
 C  C8  1  0.87410  0.12590  0.20077  1
