CIF file written using JARVIS-Tools package.
data_Pr2UP3
_symmetry_space_group_name_H-M  'Immm'
_cell_length_a       7.15464
_cell_length_b       7.15463
_cell_length_c       7.15464
_cell_angle_alpha    146.758
_cell_angle_beta     132.046
_cell_angle_gamma    59.5957

_symmetry_Int_Tables_number  71
_chemical_formula_structural  Pr2UP3
_chemical_formula_sum  Pr2UP3
_cell_volume  147.76586125527498
_cell_formula_units_Z  1
loop_
  _symmetry_equiv_pos_site_id
 _symmetry_equiv_pos_as_xyz
 1  'x, y, z'
loop_
 _atom_site_type_symbol
 _atom_site_label
 _atom_site_symmetry_multiplicity
 _atom_site_fract_x
 _atom_site_fract_y
 _atom_site_fract_z
 _atom_site_fract_occupancy
 P  P1  1  0.50000  -0.00000  0.50000  1
 P  P2  1  0.15452  0.65452  0.50000  1
 P  P3  1  0.84548  0.34548  0.50000  1
 Pr  Pr1  1  0.66840  0.66840  -0.00000  1
 Pr  Pr2  1  0.33160  0.33160  -0.00000  1
 U  U1  1  0.00000  0.00000  0.00000  1
