CIF file written using JARVIS-Tools package.
data_Li2Co4O3F8
_symmetry_space_group_name_H-M  'P-1'
_cell_length_a       4.89111
_cell_length_b       6.20431
_cell_length_c       6.83951
_cell_angle_alpha    108.844
_cell_angle_beta     106.176
_cell_angle_gamma    96.3698

_symmetry_Int_Tables_number  2
_chemical_formula_structural  Li2Co4O3F8
_chemical_formula_sum  Li2Co4O3F8
_cell_volume  183.98385213971213
_cell_formula_units_Z  1
loop_
  _symmetry_equiv_pos_site_id
 _symmetry_equiv_pos_as_xyz
 1  'x, y, z'
loop_
 _atom_site_type_symbol
 _atom_site_label
 _atom_site_symmetry_multiplicity
 _atom_site_fract_x
 _atom_site_fract_y
 _atom_site_fract_z
 _atom_site_fract_occupancy
 Co  Co1  1  0.89849  0.24913  0.97082  1
 Co  Co2  1  0.33921  0.37215  0.77880  1
 Co  Co3  1  0.66079  0.62785  0.22120  1
 Co  Co4  1  0.10151  0.75087  0.02918  1
 F  F1  1  0.53194  0.89385  0.18463  1
 F  F2  1  0.20266  0.63395  0.74563  1
 F  F3  1  0.79734  0.36605  0.25437  1
 F  F4  1  0.37935  0.28289  0.50624  1
 F  F5  1  0.62065  0.71711  0.49376  1
 F  F6  1  0.05152  0.80226  0.33362  1
 F  F7  1  0.46806  0.10615  0.81537  1
 F  F8  1  0.94848  0.19774  0.66638  1
 Li  Li1  1  0.67706  0.19854  0.41237  1
 Li  Li2  1  0.32294  0.80146  0.58763  1
 O  O1  1  0.72883  0.52637  0.95156  1
 O  O2  1  0.27117  0.47363  0.04844  1
 O  O3  1  0.00000  0.00000  -0.00000  1
