CIF file written using JARVIS-Tools package.
data_KNaNb2O6
_symmetry_space_group_name_H-M  'Pm'
_cell_length_a       3.99599
_cell_length_b       4.08255
_cell_length_c       8.06532
_cell_angle_alpha    89.6365
_cell_angle_beta     90
_cell_angle_gamma    90

_symmetry_Int_Tables_number  6
_chemical_formula_structural  KNaNb2O6
_chemical_formula_sum  KNaNb2O6
_cell_volume  131.57350323102287
_cell_formula_units_Z  1
loop_
  _symmetry_equiv_pos_site_id
 _symmetry_equiv_pos_as_xyz
 1  'x, y, z'
loop_
 _atom_site_type_symbol
 _atom_site_label
 _atom_site_symmetry_multiplicity
 _atom_site_fract_x
 _atom_site_fract_y
 _atom_site_fract_z
 _atom_site_fract_occupancy
 K  K1  1  0.50000  0.48359  0.24166  1
 Na  Na1  1  0.50000  0.53495  0.74935  1
 Nb  Nb1  1  0.00000  0.99971  0.99317  1
 Nb  Nb2  1  0.00000  0.99646  0.49846  1
 O  O1  1  0.50000  0.95370  0.48545  1
 O  O2  1  0.50000  0.95699  0.97691  1
 O  O3  1  0.00000  0.96510  0.23298  1
 O  O4  1  0.00000  0.94872  0.73510  1
 O  O5  1  0.00000  0.46007  0.48982  1
 O  O6  1  0.00000  0.46311  0.97831  1
