CIF file written using JARVIS-Tools package.
data_Ti4Fe2P3
_symmetry_space_group_name_H-M  'Amm2'
_cell_length_a       6.19669
_cell_length_b       6.19669
_cell_length_c       3.46957
_cell_angle_alpha    90
_cell_angle_beta     90
_cell_angle_gamma    117.916

_symmetry_Int_Tables_number  38
_chemical_formula_structural  Ti4Fe2P3
_chemical_formula_sum  Ti4Fe2P3
_cell_volume  117.72455238632777
_cell_formula_units_Z  1
loop_
  _symmetry_equiv_pos_site_id
 _symmetry_equiv_pos_as_xyz
 1  'x, y, z'
loop_
 _atom_site_type_symbol
 _atom_site_label
 _atom_site_symmetry_multiplicity
 _atom_site_fract_x
 _atom_site_fract_y
 _atom_site_fract_z
 _atom_site_fract_occupancy
 Fe  Fe1  1  0.25144  0.00346  0.00000  1
 Fe  Fe2  1  0.00346  0.25144  0.00000  1
 P  P1  1  0.32007  0.66290  0.00000  1
 P  P2  1  0.66290  0.32007  0.00000  1
 P  P3  1  0.02528  0.02528  0.50000  1
 Ti  Ti1  1  0.40999  0.40999  0.50000  1
 Ti  Ti2  1  0.57698  0.99074  0.50000  1
 Ti  Ti3  1  0.99074  0.57698  0.50000  1
 Ti  Ti4  1  0.75903  0.75903  0.00000  1
