CIF file written using JARVIS-Tools package.
data_NbOF3
_symmetry_space_group_name_H-M  'Immm'
_cell_length_a       4.99317
_cell_length_b       4.99316
_cell_length_c       4.99317
_cell_angle_alpha    134.208
_cell_angle_beta     131.21
_cell_angle_gamma    69.1394

_symmetry_Int_Tables_number  71
_chemical_formula_structural  NbOF3
_chemical_formula_sum  NbOF3
_cell_volume  65.8876796180142
_cell_formula_units_Z  1
loop_
  _symmetry_equiv_pos_site_id
 _symmetry_equiv_pos_as_xyz
 1  'x, y, z'
loop_
 _atom_site_type_symbol
 _atom_site_label
 _atom_site_symmetry_multiplicity
 _atom_site_fract_x
 _atom_site_fract_y
 _atom_site_fract_z
 _atom_site_fract_occupancy
 F  F1  1  0.76659  0.76659  0.00000  1
 F  F2  1  0.50000  0.00000  0.50000  1
 F  F3  1  0.23341  0.23341  -0.00000  1
 Nb  Nb1  1  0.00000  0.00000  0.00000  1
 O  O1  1  0.00000  0.50000  0.50000  1
