CIF file written using JARVIS-Tools package.
data_Zn2GaCuSe4
_symmetry_space_group_name_H-M  'R3m'
_cell_length_a       13.3677
_cell_length_b       13.3677
_cell_length_c       13.3677
_cell_angle_alpha    17.4448
_cell_angle_beta     17.4448
_cell_angle_gamma    17.4448

_symmetry_Int_Tables_number  160
_chemical_formula_structural  Zn2GaCuSe4
_chemical_formula_sum  Zn2GaCuSe4
_cell_volume  187.3568475372293
_cell_formula_units_Z  1
loop_
  _symmetry_equiv_pos_site_id
 _symmetry_equiv_pos_as_xyz
 1  'x, y, z'
loop_
 _atom_site_type_symbol
 _atom_site_label
 _atom_site_symmetry_multiplicity
 _atom_site_fract_x
 _atom_site_fract_y
 _atom_site_fract_z
 _atom_site_fract_occupancy
 Cu  Cu1  1  0.00725  0.00725  0.00725  1
 Ga  Ga1  1  0.24998  0.24998  0.24998  1
 Se  Se1  1  0.94135  0.94135  0.94135  1
 Se  Se2  1  0.18675  0.18675  0.18675  1
 Se  Se3  1  0.43602  0.43602  0.43602  1
 Se  Se4  1  0.68514  0.68514  0.68514  1
 Zn  Zn1  1  0.49707  0.49707  0.49707  1
 Zn  Zn2  1  0.74644  0.74644  0.74644  1
