CIF file written using JARVIS-Tools package.
data_YbSr3RhO6
_symmetry_space_group_name_H-M  'R-3c'
_cell_length_a       6.77701
_cell_length_b       6.77701
_cell_length_c       6.77701
_cell_angle_alpha    91.7744
_cell_angle_beta     91.7744
_cell_angle_gamma    91.7743

_symmetry_Int_Tables_number  167
_chemical_formula_structural  YbSr3RhO6
_chemical_formula_sum  Yb2Sr6Rh2O2
_cell_volume  310.7965953486883
_cell_formula_units_Z  2
loop_
  _symmetry_equiv_pos_site_id
 _symmetry_equiv_pos_as_xyz
 1  'x, y, z'
loop_
 _atom_site_type_symbol
 _atom_site_label
 _atom_site_symmetry_multiplicity
 _atom_site_fract_x
 _atom_site_fract_y
 _atom_site_fract_z
 _atom_site_fract_occupancy
 O  O1  1  0.08419  0.28630  0.95149  1
 O  O2  1  0.58419  0.45149  0.78630  1
 O  O3  1  0.45149  0.78630  0.58419  1
 O  O4  1  0.04851  0.91581  0.71370  1
 O  O5  1  0.91581  0.71370  0.04851  1
 O  O6  1  0.71370  0.04851  0.91581  1
 O  O7  1  0.21370  0.41581  0.54851  1
 O  O8  1  0.41581  0.54851  0.21370  1
 O  O9  1  0.54851  0.21370  0.41581  1
 O  O10  1  0.78630  0.58419  0.45149  1
 O  O11  1  0.28630  0.95149  0.08419  1
 O  O12  1  0.95149  0.08419  0.28630  1
 Rh  Rh1  1  0.50000  0.50000  0.50000  1
 Rh  Rh2  1  0.00000  0.00000  0.00000  1
 Sr  Sr1  1  0.61583  0.88417  0.25000  1
 Sr  Sr2  1  0.25000  0.61583  0.88417  1
 Sr  Sr3  1  0.88417  0.25000  0.61583  1
 Sr  Sr4  1  0.38417  0.11583  0.75000  1
 Sr  Sr5  1  0.11583  0.75000  0.38417  1
 Sr  Sr6  1  0.75000  0.38417  0.11583  1
 Yb  Yb1  1  0.75000  0.75000  0.75000  1
 Yb  Yb2  1  0.25000  0.25000  0.25000  1
