CIF file written using JARVIS-Tools package.
data_Fe3O5F
_symmetry_space_group_name_H-M  'Cm'
_cell_length_a       6.92268
_cell_length_b       5.23264
_cell_length_c       5.23264
_cell_angle_alpha    70.8914
_cell_angle_beta     71.1524
_cell_angle_gamma    71.1524

_symmetry_Int_Tables_number  8
_chemical_formula_structural  Fe3O5F
_chemical_formula_sum  Fe6O0F2
_cell_volume  164.41855414285968
_cell_formula_units_Z  2
loop_
  _symmetry_equiv_pos_site_id
 _symmetry_equiv_pos_as_xyz
 1  'x, y, z'
loop_
 _atom_site_type_symbol
 _atom_site_label
 _atom_site_symmetry_multiplicity
 _atom_site_fract_x
 _atom_site_fract_y
 _atom_site_fract_z
 _atom_site_fract_occupancy
 F  F1  1  0.63186  0.56631  0.56631  1
 F  F2  1  0.30084  0.89733  0.89733  1
 Fe  Fe1  1  0.99067  0.00387  0.00387  1
 Fe  Fe2  1  0.50971  0.00598  0.00598  1
 Fe  Fe3  1  0.84852  0.67517  0.67517  1
 Fe  Fe4  1  0.32112  0.65471  0.65471  1
 Fe  Fe5  1  0.66400  0.32661  0.32661  1
 Fe  Fe6  1  0.16180  0.33132  0.33132  1
 O  O1  1  -0.00090  0.69914  0.30585  1
 O  O2  1  -0.00090  0.30585  0.69914  1
 O  O3  1  0.33295  0.96616  0.36233  1
 O  O4  1  0.70241  0.10288  0.10288  1
 O  O5  1  0.96042  0.23232  0.23232  1
 O  O6  1  0.03809  0.77038  0.77038  1
 O  O7  1  0.33295  0.36233  0.96616  1
 O  O8  1  0.66924  0.03024  0.64011  1
 O  O9  1  0.36796  0.42929  0.42929  1
 O  O10  1  0.66924  0.64011  0.03024  1
