CIF file written using JARVIS-Tools package.
data_Zr4CuNi
_symmetry_space_group_name_H-M  'I422'
_cell_length_a       5.31731
_cell_length_b       5.31731
_cell_length_c       5.31731
_cell_angle_alpha    103.558
_cell_angle_beta     103.558
_cell_angle_gamma    122.083

_symmetry_Int_Tables_number  97
_chemical_formula_structural  Zr4CuNi
_chemical_formula_sum  Zr4CuNi
_cell_volume  111.45436550504921
_cell_formula_units_Z  1
loop_
  _symmetry_equiv_pos_site_id
 _symmetry_equiv_pos_as_xyz
 1  'x, y, z'
loop_
 _atom_site_type_symbol
 _atom_site_label
 _atom_site_symmetry_multiplicity
 _atom_site_fract_x
 _atom_site_fract_y
 _atom_site_fract_z
 _atom_site_fract_occupancy
 Cu  Cu1  1  0.50000  0.50000  -0.00000  1
 Ni  Ni1  1  0.00000  0.00000  0.00000  1
 Zr  Zr1  1  0.40985  0.90985  0.81971  1
 Zr  Zr2  1  0.09015  0.59015  0.18029  1
 Zr  Zr3  1  0.59015  0.40985  0.50000  1
 Zr  Zr4  1  0.90985  0.09015  0.50000  1
