CIF file written using JARVIS-Tools package.
data_In2GaAs3
_symmetry_space_group_name_H-M  'I-4m2'
_cell_length_a       9.58463
_cell_length_b       9.58463
_cell_length_c       9.58463
_cell_angle_alpha    154.333
_cell_angle_beta     154.333
_cell_angle_gamma    36.6162

_symmetry_Int_Tables_number  119
_chemical_formula_structural  In2GaAs3
_chemical_formula_sum  In2GaAs3
_cell_volume  164.97056522722335
_cell_formula_units_Z  1
loop_
  _symmetry_equiv_pos_site_id
 _symmetry_equiv_pos_as_xyz
 1  'x, y, z'
loop_
 _atom_site_type_symbol
 _atom_site_label
 _atom_site_symmetry_multiplicity
 _atom_site_fract_x
 _atom_site_fract_y
 _atom_site_fract_z
 _atom_site_fract_occupancy
 As  As1  1  0.25000  0.75000  0.50000  1
 As  As2  1  0.57512  0.07512  0.50000  1
 As  As3  1  0.92488  0.42488  0.50000  1
 Ga  Ga1  1  0.00000  0.00000  0.00000  1
 In  In1  1  0.33714  0.33714  0.00000  1
 In  In2  1  0.66286  0.66286  -0.00000  1
