CIF file written using JARVIS-Tools package.
data_Ti2Te2P
_symmetry_space_group_name_H-M  'R-3m'
_cell_length_a       9.86625
_cell_length_b       9.86625
_cell_length_c       9.86625
_cell_angle_alpha    21.3773
_cell_angle_beta     21.3773
_cell_angle_gamma    21.3773

_symmetry_Int_Tables_number  166
_chemical_formula_structural  Ti2Te2P
_chemical_formula_sum  Ti2Te2P
_cell_volume  111.79144748726372
_cell_formula_units_Z  1
loop_
  _symmetry_equiv_pos_site_id
 _symmetry_equiv_pos_as_xyz
 1  'x, y, z'
loop_
 _atom_site_type_symbol
 _atom_site_label
 _atom_site_symmetry_multiplicity
 _atom_site_fract_x
 _atom_site_fract_y
 _atom_site_fract_z
 _atom_site_fract_occupancy
 P  P1  1  0.00000  0.00000  0.00000  1
 Te  Te1  1  0.77546  0.77546  0.77546  1
 Te  Te2  1  0.22454  0.22454  0.22454  1
 Ti  Ti1  1  0.37924  0.37924  0.37924  1
 Ti  Ti2  1  0.62076  0.62076  0.62076  1
