CIF file written using JARVIS-Tools package.
data_Pb2O3
_symmetry_space_group_name_H-M  'Cmcm'
_cell_length_a       8.22255
_cell_length_b       3.39153
_cell_length_c       5.84794
_cell_angle_alpha    73.1593
_cell_angle_beta     90
_cell_angle_gamma    90

_symmetry_Int_Tables_number  63
_chemical_formula_structural  Pb2O3
_chemical_formula_sum  Pb4O6
_cell_volume  156.08774470657136
_cell_formula_units_Z  2
loop_
  _symmetry_equiv_pos_site_id
 _symmetry_equiv_pos_as_xyz
 1  'x, y, z'
loop_
 _atom_site_type_symbol
 _atom_site_label
 _atom_site_symmetry_multiplicity
 _atom_site_fract_x
 _atom_site_fract_y
 _atom_site_fract_z
 _atom_site_fract_occupancy
 O  O1  1  0.75000  0.07764  0.84461  1
 O  O2  1  0.25000  0.92236  0.15539  1
 O  O3  1  0.53889  0.37206  0.25619  1
 O  O4  1  0.03889  0.62794  0.74381  1
 O  O5  1  0.46111  0.62794  0.74381  1
 O  O6  1  0.96111  0.37206  0.25619  1
 Pb  Pb1  1  0.50000  0.00000  0.00000  1
 Pb  Pb2  1  0.00000  0.00000  0.00000  1
 Pb  Pb3  1  0.75000  0.73048  0.53808  1
 Pb  Pb4  1  0.25000  0.26952  0.46192  1
