CIF file written using JARVIS-Tools package.
data_BaNdFeCoO6
_symmetry_space_group_name_H-M  'P4mm'
_cell_length_a       3.88219
_cell_length_b       3.88219
_cell_length_c       7.70221
_cell_angle_alpha    90
_cell_angle_beta     90
_cell_angle_gamma    90

_symmetry_Int_Tables_number  99
_chemical_formula_structural  BaNdFeCoO6
_chemical_formula_sum  BaNdFeCoO6
_cell_volume  116.08326797480497
_cell_formula_units_Z  1
loop_
  _symmetry_equiv_pos_site_id
 _symmetry_equiv_pos_as_xyz
 1  'x, y, z'
loop_
 _atom_site_type_symbol
 _atom_site_label
 _atom_site_symmetry_multiplicity
 _atom_site_fract_x
 _atom_site_fract_y
 _atom_site_fract_z
 _atom_site_fract_occupancy
 Ba  Ba1  1  0.00000  0.00000  0.99703  1
 Co  Co1  1  0.50000  0.50000  0.74942  1
 Fe  Fe1  1  0.50000  0.50000  0.25358  1
 Nd  Nd1  1  0.00000  0.00000  0.50479  1
 O  O1  1  0.50000  0.50000  0.00626  1
 O  O2  1  0.00000  0.50000  0.72463  1
 O  O3  1  0.50000  0.00000  0.72463  1
 O  O4  1  0.00000  0.50000  0.27097  1
 O  O5  1  0.50000  0.00000  0.27097  1
 O  O6  1  0.50000  0.50000  0.49771  1
