CIF file written using JARVIS-Tools package.
data_TaF5
_symmetry_space_group_name_H-M  'C2/m'
_cell_length_a       4.96662
_cell_length_b       8.62004
_cell_length_c       8.62004
_cell_angle_alpha    112.983
_cell_angle_beta     94.5759
_cell_angle_gamma    94.576

_symmetry_Int_Tables_number  12
_chemical_formula_structural  TaF5
_chemical_formula_sum  Ta4F20
_cell_volume  336.18360795786316
_cell_formula_units_Z  4
loop_
  _symmetry_equiv_pos_site_id
 _symmetry_equiv_pos_as_xyz
 1  'x, y, z'
loop_
 _atom_site_type_symbol
 _atom_site_label
 _atom_site_symmetry_multiplicity
 _atom_site_fract_x
 _atom_site_fract_y
 _atom_site_fract_z
 _atom_site_fract_occupancy
 F  F1  1  0.62654  0.58860  0.16876  1
 F  F2  1  0.14126  0.27317  0.46835  1
 F  F3  1  0.60923  0.34874  0.34874  1
 F  F4  1  0.14126  0.46835  0.27317  1
 F  F5  1  0.37932  0.02681  0.21856  1
 F  F6  1  0.39077  0.65126  0.65126  1
 F  F7  1  0.85874  0.53165  0.72683  1
 F  F8  1  0.07901  0.87199  0.87199  1
 F  F9  1  0.84169  0.30009  0.92574  1
 F  F10  1  0.62068  0.97319  0.78144  1
 F  F11  1  0.84169  0.92574  0.30009  1
 F  F12  1  0.15831  0.07426  0.69991  1
 F  F13  1  0.37346  0.83124  0.41140  1
 F  F14  1  0.62068  0.78144  0.97319  1
 F  F15  1  0.15831  0.69991  0.07426  1
 F  F16  1  0.37932  0.21856  0.02681  1
 F  F17  1  0.37346  0.41140  0.83124  1
 F  F18  1  0.92099  0.12801  0.12801  1
 F  F19  1  0.85874  0.72683  0.53165  1
 F  F20  1  0.62654  0.16876  0.58860  1
 Ta  Ta1  1  0.50000  0.20441  0.79559  1
 Ta  Ta2  1  0.24085  0.26145  0.26145  1
 Ta  Ta3  1  0.75915  0.73855  0.73855  1
 Ta  Ta4  1  0.50000  0.79559  0.20441  1
