CIF file written using JARVIS-Tools package.
data_SrTa2O6
_symmetry_space_group_name_H-M  'Pnma'
_cell_length_a       5.64979
_cell_length_b       7.68288
_cell_length_c       11.1194
_cell_angle_alpha    90
_cell_angle_beta     90
_cell_angle_gamma    90

_symmetry_Int_Tables_number  62
_chemical_formula_structural  SrTa2O6
_chemical_formula_sum  Sr4Ta8O24
_cell_volume  482.6545755266001
_cell_formula_units_Z  4
loop_
  _symmetry_equiv_pos_site_id
 _symmetry_equiv_pos_as_xyz
 1  'x, y, z'
loop_
 _atom_site_type_symbol
 _atom_site_label
 _atom_site_symmetry_multiplicity
 _atom_site_fract_x
 _atom_site_fract_y
 _atom_site_fract_z
 _atom_site_fract_occupancy
 O  O1  1  0.86101  0.44933  0.71284  1
 O  O2  1  0.36101  0.94933  0.78716  1
 O  O3  1  0.13899  0.55067  0.28716  1
 O  O4  1  0.21869  0.53515  0.02452  1
 O  O5  1  0.46711  0.25000  0.64666  1
 O  O6  1  0.78131  0.03515  0.97548  1
 O  O7  1  0.28131  0.96485  0.52452  1
 O  O8  1  0.86101  0.05067  0.71284  1
 O  O9  1  0.53289  0.75000  0.35334  1
 O  O10  1  0.21869  0.96485  0.02452  1
 O  O11  1  0.96711  0.75000  0.85334  1
 O  O12  1  0.35780  0.25000  0.37057  1
 O  O13  1  0.85780  0.75000  0.12943  1
 O  O14  1  0.64220  0.75000  0.62943  1
 O  O15  1  0.14220  0.25000  0.87057  1
 O  O16  1  0.03289  0.25000  0.14666  1
 O  O17  1  0.36101  0.55067  0.78716  1
 O  O18  1  0.71869  0.03515  0.47548  1
 O  O19  1  0.63899  0.05067  0.21284  1
 O  O20  1  0.13899  0.94933  0.28716  1
 O  O21  1  0.78131  0.46485  0.97548  1
 O  O22  1  0.28131  0.53515  0.52452  1
 O  O23  1  0.63899  0.44933  0.21284  1
 O  O24  1  0.71869  0.46485  0.47548  1
 Sr  Sr1  1  0.46159  0.25000  0.03930  1
 Sr  Sr2  1  0.03841  0.25000  0.53930  1
 Sr  Sr3  1  0.53841  0.75000  0.96070  1
 Sr  Sr4  1  0.96159  0.75000  0.46070  1
 Ta  Ta1  1  0.53649  0.50433  0.64261  1
 Ta  Ta2  1  0.03649  0.49567  0.85739  1
 Ta  Ta3  1  0.46351  0.00433  0.35739  1
 Ta  Ta4  1  0.96351  0.50433  0.14261  1
 Ta  Ta5  1  0.46351  0.49567  0.35739  1
 Ta  Ta6  1  0.03649  0.00433  0.85739  1
 Ta  Ta7  1  0.96351  0.99567  0.14261  1
 Ta  Ta8  1  0.53649  0.99567  0.64261  1
