CIF file written using JARVIS-Tools package.
data_YPdPb
_symmetry_space_group_name_H-M  'P-62m'
_cell_length_a       7.84369
_cell_length_b       7.8437
_cell_length_c       3.866
_cell_angle_alpha    90
_cell_angle_beta     90
_cell_angle_gamma    120

_symmetry_Int_Tables_number  189
_chemical_formula_structural  YPdPb
_chemical_formula_sum  Y3Pd3Pb3
_cell_volume  205.984224137581
_cell_formula_units_Z  3
loop_
  _symmetry_equiv_pos_site_id
 _symmetry_equiv_pos_as_xyz
 1  'x, y, z'
loop_
 _atom_site_type_symbol
 _atom_site_label
 _atom_site_symmetry_multiplicity
 _atom_site_fract_x
 _atom_site_fract_y
 _atom_site_fract_z
 _atom_site_fract_occupancy
 Pb  Pb1  1  0.73155  0.00000  0.00000  1
 Pb  Pb2  1  0.00000  0.73155  0.00000  1
 Pb  Pb3  1  0.26845  0.26845  0.00000  1
 Pd  Pd1  1  0.00000  0.00000  0.50000  1
 Pd  Pd2  1  0.33333  0.66667  0.00000  1
 Pd  Pd3  1  0.66667  0.33333  0.00000  1
 Y  Y1  1  0.39803  -0.00000  0.50000  1
 Y  Y2  1  -0.00000  0.39803  0.50000  1
 Y  Y3  1  0.60197  0.60197  0.50000  1
