CIF file written using JARVIS-Tools package.
data_K3AsSe3
_symmetry_space_group_name_H-M  'P2_13'
_cell_length_a       9.67434
_cell_length_b       9.67434
_cell_length_c       9.67434
_cell_angle_alpha    90
_cell_angle_beta     90
_cell_angle_gamma    90

_symmetry_Int_Tables_number  198
_chemical_formula_structural  K3AsSe3
_chemical_formula_sum  K2As4Se2
_cell_volume  905.4483464545922
_cell_formula_units_Z  4
loop_
  _symmetry_equiv_pos_site_id
 _symmetry_equiv_pos_as_xyz
 1  'x, y, z'
loop_
 _atom_site_type_symbol
 _atom_site_label
 _atom_site_symmetry_multiplicity
 _atom_site_fract_x
 _atom_site_fract_y
 _atom_site_fract_z
 _atom_site_fract_occupancy
 As  As1  1  0.97456  0.52544  0.47456  1
 As  As2  1  0.02544  0.02544  0.02544  1
 As  As3  1  0.47456  0.97456  0.52544  1
 As  As4  1  0.52544  0.47456  0.97456  1
 K  K1  1  0.57494  0.57494  0.57494  1
 K  K2  1  0.92506  0.42506  0.07494  1
 K  K3  1  0.07494  0.92506  0.42506  1
 K  K4  1  0.42506  0.07494  0.92506  1
 K  K5  1  0.81981  0.18019  0.68019  1
 K  K6  1  0.68644  0.18644  0.31356  1
 K  K7  1  0.31356  0.68644  0.18644  1
 K  K8  1  0.18644  0.31356  0.68644  1
 K  K9  1  0.31981  0.31981  0.31981  1
 K  K10  1  0.18019  0.68019  0.81981  1
 K  K11  1  0.68019  0.81981  0.18019  1
 K  K12  1  0.81356  0.81356  0.81356  1
 Se  Se1  1  0.60398  0.49656  0.21417  1
 Se  Se2  1  0.89602  0.50344  0.71417  1
 Se  Se3  1  0.99656  0.28583  0.39602  1
 Se  Se4  1  0.39602  0.99656  0.28583  1
 Se  Se5  1  0.00344  0.78583  0.10398  1
 Se  Se6  1  0.71417  0.89602  0.50344  1
 Se  Se7  1  0.10398  0.00344  0.78583  1
 Se  Se8  1  0.78583  0.10398  0.00344  1
 Se  Se9  1  0.28583  0.39602  0.99656  1
 Se  Se10  1  0.49656  0.21417  0.60398  1
 Se  Se11  1  0.50344  0.71417  0.89602  1
 Se  Se12  1  0.21417  0.60398  0.49656  1
