CIF file written using JARVIS-Tools package.
data_LiTi2Te4
_symmetry_space_group_name_H-M  'C2/m'
_cell_length_a       7.96014
_cell_length_b       7.96014
_cell_length_c       6.69572
_cell_angle_alpha    64.7194
_cell_angle_beta     64.7194
_cell_angle_gamma    28.0646

_symmetry_Int_Tables_number  12
_chemical_formula_structural  LiTi2Te4
_chemical_formula_sum  LiTi2Te4
_cell_volume  179.2246470688125
_cell_formula_units_Z  1
loop_
  _symmetry_equiv_pos_site_id
 _symmetry_equiv_pos_as_xyz
 1  'x, y, z'
loop_
 _atom_site_type_symbol
 _atom_site_label
 _atom_site_symmetry_multiplicity
 _atom_site_fract_x
 _atom_site_fract_y
 _atom_site_fract_z
 _atom_site_fract_occupancy
 Li  Li1  1  0.00000  0.00000  0.00000  1
 Te  Te1  1  0.12513  0.12513  0.21508  1
 Te  Te2  1  0.63087  0.63087  0.69962  1
 Te  Te3  1  0.87487  0.87487  0.78492  1
 Te  Te4  1  0.36913  0.36913  0.30038  1
 Ti  Ti1  1  0.75060  0.75060  0.23712  1
 Ti  Ti2  1  0.24940  0.24940  0.76288  1
