CIF file written using JARVIS-Tools package.
data_U2AsSe
_symmetry_space_group_name_H-M  'I4_1/amd'
_cell_length_a       7.08117
_cell_length_b       7.08117
_cell_length_c       7.08118
_cell_angle_alpha    131.843
_cell_angle_beta     131.843
_cell_angle_gamma    70.4772

_symmetry_Int_Tables_number  141
_chemical_formula_structural  U2AsSe
_chemical_formula_sum  U4As2Se2
_cell_volume  193.0923116866321
_cell_formula_units_Z  2
loop_
  _symmetry_equiv_pos_site_id
 _symmetry_equiv_pos_as_xyz
 1  'x, y, z'
loop_
 _atom_site_type_symbol
 _atom_site_label
 _atom_site_symmetry_multiplicity
 _atom_site_fract_x
 _atom_site_fract_y
 _atom_site_fract_z
 _atom_site_fract_occupancy
 As  As1  1  0.50000  0.50000  0.00000  1
 As  As2  1  0.25000  0.75000  0.50000  1
 Se  Se1  1  0.00000  0.00000  0.00000  1
 Se  Se2  1  0.75000  0.25000  0.50000  1
 U  U1  1  0.74891  0.74891  0.00000  1
 U  U2  1  0.25109  0.25109  0.00000  1
 U  U3  1  0.00109  0.50109  0.50000  1
 U  U4  1  0.49891  0.99891  0.50000  1
