CIF file written using JARVIS-Tools package.
data_Ba2AlIn3
_symmetry_space_group_name_H-M  'Cm'
_cell_length_a       6.54198
_cell_length_b       6.54198
_cell_length_c       8.52764
_cell_angle_alpha    49.7567
_cell_angle_beta     49.7567
_cell_angle_gamma    46.9955

_symmetry_Int_Tables_number  8
_chemical_formula_structural  Ba2AlIn3
_chemical_formula_sum  Ba2AlIn3
_cell_volume  189.430624026123
_cell_formula_units_Z  1
loop_
  _symmetry_equiv_pos_site_id
 _symmetry_equiv_pos_as_xyz
 1  'x, y, z'
loop_
 _atom_site_type_symbol
 _atom_site_label
 _atom_site_symmetry_multiplicity
 _atom_site_fract_x
 _atom_site_fract_y
 _atom_site_fract_z
 _atom_site_fract_occupancy
 Al  Al1  1  0.57114  0.57114  0.59105  1
 Ba  Ba1  1  0.74707  0.74707  0.80346  1
 Ba  Ba2  1  0.25034  0.25034  0.19705  1
 In  In1  1  0.43986  0.43986  0.40882  1
 In  In2  1  0.06696  0.06696  0.76335  1
 In  In3  1  0.92463  0.92463  0.23627  1
