CIF file written using JARVIS-Tools package.
data_MgMo2O4
_symmetry_space_group_name_H-M  'Fd-3m'
_cell_length_a       6.06326
_cell_length_b       6.06326
_cell_length_c       6.06517
_cell_angle_alpha    119.99
_cell_angle_beta     119.99
_cell_angle_gamma    90

_symmetry_Int_Tables_number  227
_chemical_formula_structural  MgMo2O4
_chemical_formula_sum  Mg2Mo4O8
_cell_volume  157.71640222977746
_cell_formula_units_Z  2
loop_
  _symmetry_equiv_pos_site_id
 _symmetry_equiv_pos_as_xyz
 1  'x, y, z'
loop_
 _atom_site_type_symbol
 _atom_site_label
 _atom_site_symmetry_multiplicity
 _atom_site_fract_x
 _atom_site_fract_y
 _atom_site_fract_z
 _atom_site_fract_occupancy
 Mg  Mg1  1  0.37500  0.62500  0.75000  1
 Mg  Mg2  1  0.62500  0.37500  0.25000  1
 Mo  Mo1  1  -0.00000  -0.00000  0.50000  1
 Mo  Mo2  1  -0.00000  0.50000  -0.00000  1
 Mo  Mo3  1  0.50000  -0.00000  0.50000  1
 Mo  Mo4  1  0.00000  0.00000  0.00000  1
 O  O1  1  0.75208  0.75592  0.50415  1
 O  O2  1  0.75177  0.24792  0.99585  1
 O  O3  1  0.24408  0.24792  0.99585  1
 O  O4  1  0.24792  0.24408  0.49585  1
 O  O5  1  0.24792  0.75177  0.49585  1
 O  O6  1  0.24823  0.75208  0.00415  1
 O  O7  1  0.75208  0.24823  0.50415  1
 O  O8  1  0.75592  0.75208  0.00415  1
