CIF file written using JARVIS-Tools package.
data_NaNiIO6
_symmetry_space_group_name_H-M  'P312'
_cell_length_a       5.00359
_cell_length_b       5.0036
_cell_length_c       5.09118
_cell_angle_alpha    90
_cell_angle_beta     90
_cell_angle_gamma    120

_symmetry_Int_Tables_number  149
_chemical_formula_structural  NaNiIO6
_chemical_formula_sum  NaNiIO6
_cell_volume  110.38568490894227
_cell_formula_units_Z  1
loop_
  _symmetry_equiv_pos_site_id
 _symmetry_equiv_pos_as_xyz
 1  'x, y, z'
loop_
 _atom_site_type_symbol
 _atom_site_label
 _atom_site_symmetry_multiplicity
 _atom_site_fract_x
 _atom_site_fract_y
 _atom_site_fract_z
 _atom_site_fract_occupancy
 I  I1  1  0.00000  0.00000  0.50000  1
 Na  Na1  1  0.33333  0.66667  0.00000  1
 Ni  Ni1  1  0.66667  0.33333  0.50000  1
 O  O1  1  0.33759  0.04126  0.70922  1
 O  O2  1  0.95874  0.66241  0.29078  1
 O  O3  1  0.33759  0.29634  0.29078  1
 O  O4  1  0.70366  0.04126  0.29078  1
 O  O5  1  0.95874  0.29634  0.70922  1
 O  O6  1  0.70366  0.66241  0.70922  1
