CIF file written using JARVIS-Tools package.
data_MnCdTe2
_symmetry_space_group_name_H-M  'R3m'
_cell_length_a       7.85175
_cell_length_b       7.85174
_cell_length_c       7.85175
_cell_angle_alpha    33.8998
_cell_angle_beta     33.8998
_cell_angle_gamma    33.8998

_symmetry_Int_Tables_number  160
_chemical_formula_structural  MnCdTe2
_chemical_formula_sum  MnCdTe2
_cell_volume  134.20073289255876
_cell_formula_units_Z  1
loop_
  _symmetry_equiv_pos_site_id
 _symmetry_equiv_pos_as_xyz
 1  'x, y, z'
loop_
 _atom_site_type_symbol
 _atom_site_label
 _atom_site_symmetry_multiplicity
 _atom_site_fract_x
 _atom_site_fract_y
 _atom_site_fract_z
 _atom_site_fract_occupancy
 Cd  Cd1  1  0.00130  0.00130  0.00130  1
 Mn  Mn1  1  0.49827  0.49827  0.49827  1
 Te  Te1  1  0.12987  0.12987  0.12987  1
 Te  Te2  1  0.62057  0.62057  0.62057  1
