CIF file written using JARVIS-Tools package.
data_Cd2BiAsO6
_symmetry_space_group_name_H-M  'Cmc2_1'
_cell_length_a       5.69785
_cell_length_b       7.25923
_cell_length_c       7.25922
_cell_angle_alpha    105.72
_cell_angle_beta     90
_cell_angle_gamma    90

_symmetry_Int_Tables_number  36
_chemical_formula_structural  Cd2BiAsO6
_chemical_formula_sum  Cd4Bi2As2O2
_cell_volume  289.0260095002296
_cell_formula_units_Z  2
loop_
  _symmetry_equiv_pos_site_id
 _symmetry_equiv_pos_as_xyz
 1  'x, y, z'
loop_
 _atom_site_type_symbol
 _atom_site_label
 _atom_site_symmetry_multiplicity
 _atom_site_fract_x
 _atom_site_fract_y
 _atom_site_fract_z
 _atom_site_fract_occupancy
 As  As1  1  0.35561  0.66595  0.33405  1
 As  As2  1  0.85561  0.33405  0.66595  1
 Bi  Bi1  1  0.37484  0.09687  0.90313  1
 Bi  Bi2  1  0.87484  0.90313  0.09687  1
 Cd  Cd1  1  0.36751  0.59328  0.81588  1
 Cd  Cd2  1  0.36751  0.18412  0.40672  1
 Cd  Cd3  1  0.86751  0.40672  0.18412  1
 Cd  Cd4  1  0.86751  0.81588  0.59328  1
 O  O1  1  0.61960  0.84201  0.84681  1
 O  O2  1  0.15133  0.29686  0.70314  1
 O  O3  1  0.11960  0.84681  0.84201  1
 O  O4  1  0.61960  0.15319  0.15799  1
 O  O5  1  0.21700  0.88313  0.43472  1
 O  O6  1  0.71700  0.43472  0.88313  1
 O  O7  1  0.65133  0.70314  0.29686  1
 O  O8  1  0.71700  0.11687  0.56528  1
 O  O9  1  0.11960  0.15799  0.15319  1
 O  O10  1  0.32140  0.51937  0.48063  1
 O  O11  1  0.82140  0.48063  0.51937  1
 O  O12  1  0.21700  0.56528  0.11687  1
