CIF file written using JARVIS-Tools package.
data_Mg2CrWO6
_symmetry_space_group_name_H-M  'R3'
_cell_length_a       5.14532
_cell_length_b       5.14535
_cell_length_c       5.49504
_cell_angle_alpha    62.0845
_cell_angle_beta     62.0839
_cell_angle_gamma    60.001

_symmetry_Int_Tables_number  146
_chemical_formula_structural  Mg2CrWO6
_chemical_formula_sum  Mg2CrWO6
_cell_volume  105.99170926935568
_cell_formula_units_Z  1
loop_
  _symmetry_equiv_pos_site_id
 _symmetry_equiv_pos_as_xyz
 1  'x, y, z'
loop_
 _atom_site_type_symbol
 _atom_site_label
 _atom_site_symmetry_multiplicity
 _atom_site_fract_x
 _atom_site_fract_y
 _atom_site_fract_z
 _atom_site_fract_occupancy
 Cr  Cr1  1  0.49629  0.49877  0.52145  1
 Mg  Mg1  1  0.28829  0.29079  0.14542  1
 Mg  Mg2  1  0.78942  0.79192  0.64202  1
 O  O1  1  0.37055  0.10541  0.81383  1
 O  O2  1  0.61162  0.88606  0.30673  1
 O  O3  1  0.10289  0.72552  0.81383  1
 O  O4  1  0.72299  0.37304  0.81385  1
 O  O5  1  0.20838  0.61413  0.30672  1
 O  O6  1  0.88356  0.21087  0.30673  1
 W  W1  1  0.99491  0.99740  0.02557  1
