CIF file written using JARVIS-Tools package.
data_Yb5Mg
_symmetry_space_group_name_H-M  'Amm2'
_cell_length_a       9.54815
_cell_length_b       9.54815
_cell_length_c       5.9666
_cell_angle_alpha    90
_cell_angle_beta     90
_cell_angle_gamma    157.276

_symmetry_Int_Tables_number  38
_chemical_formula_structural  Yb5Mg
_chemical_formula_sum  Yb5Mg
_cell_volume  210.1288739737443
_cell_formula_units_Z  1
loop_
  _symmetry_equiv_pos_site_id
 _symmetry_equiv_pos_as_xyz
 1  'x, y, z'
loop_
 _atom_site_type_symbol
 _atom_site_label
 _atom_site_symmetry_multiplicity
 _atom_site_fract_x
 _atom_site_fract_y
 _atom_site_fract_z
 _atom_site_fract_occupancy
 Mg  Mg1  1  0.78178  0.21822  0.50000  1
 Yb  Yb1  1  0.99740  0.00260  0.00000  1
 Yb  Yb2  1  0.32684  0.67316  0.00000  1
 Yb  Yb3  1  0.66583  0.33417  0.00000  1
 Yb  Yb4  1  0.43979  0.56021  0.50000  1
 Yb  Yb5  1  0.12170  0.87830  0.50000  1
