CIF file written using JARVIS-Tools package.
data_Er3CuSiS7
_symmetry_space_group_name_H-M  'P6_3'
_cell_length_a       9.78158
_cell_length_b       9.78158
_cell_length_c       5.6847
_cell_angle_alpha    90
_cell_angle_beta     90
_cell_angle_gamma    120

_symmetry_Int_Tables_number  173
_chemical_formula_structural  Er3CuSiS7
_chemical_formula_sum  Er6Cu2Si2S4
_cell_volume  471.038732633164
_cell_formula_units_Z  2
loop_
  _symmetry_equiv_pos_site_id
 _symmetry_equiv_pos_as_xyz
 1  'x, y, z'
loop_
 _atom_site_type_symbol
 _atom_site_label
 _atom_site_symmetry_multiplicity
 _atom_site_fract_x
 _atom_site_fract_y
 _atom_site_fract_z
 _atom_site_fract_occupancy
 Cu  Cu1  1  0.00000  0.00000  0.19211  1
 Cu  Cu2  1  0.00000  0.00000  0.69211  1
 Er  Er1  1  0.77375  0.13184  0.74484  1
 Er  Er2  1  0.64191  0.77375  0.24484  1
 Er  Er3  1  0.22625  0.86816  0.24484  1
 Er  Er4  1  0.13184  0.35809  0.24484  1
 Er  Er5  1  0.35809  0.22625  0.74484  1
 Er  Er6  1  0.86816  0.64191  0.74484  1
 S  S1  1  0.89662  0.41951  0.48407  1
 S  S2  1  0.33333  0.66667  0.45983  1
 S  S3  1  0.58049  0.47710  0.48407  1
 S  S4  1  0.52290  0.10338  0.48407  1
 S  S5  1  0.10338  0.58049  0.98407  1
 S  S6  1  0.09872  0.26150  0.71199  1
 S  S7  1  0.16278  0.90128  0.71199  1
 S  S8  1  0.83722  0.09872  0.21199  1
 S  S9  1  0.73850  0.83722  0.71199  1
 S  S10  1  0.26150  0.16278  0.21199  1
 S  S11  1  0.90128  0.73850  0.21199  1
 S  S12  1  0.47710  0.89662  0.98407  1
 S  S13  1  0.41951  0.52290  0.98407  1
 S  S14  1  0.66667  0.33333  0.95983  1
 Si  Si1  1  0.66667  0.33333  0.33192  1
 Si  Si2  1  0.33333  0.66667  0.83192  1
