CIF file written using JARVIS-Tools package.
data_SnH8C4I4
_symmetry_space_group_name_H-M  'P-42_1c'
_cell_length_a       9.33415
_cell_length_b       9.33415
_cell_length_c       7.2956
_cell_angle_alpha    90
_cell_angle_beta     90
_cell_angle_gamma    90

_symmetry_Int_Tables_number  114
_chemical_formula_structural  SnH8C4I4
_chemical_formula_sum  Sn2H6C8I8
_cell_volume  635.6392155232015
_cell_formula_units_Z  2
loop_
  _symmetry_equiv_pos_site_id
 _symmetry_equiv_pos_as_xyz
 1  'x, y, z'
loop_
 _atom_site_type_symbol
 _atom_site_label
 _atom_site_symmetry_multiplicity
 _atom_site_fract_x
 _atom_site_fract_y
 _atom_site_fract_z
 _atom_site_fract_occupancy
 C  C1  1  0.89322  0.15617  0.32715  1
 C  C2  1  0.10678  0.84383  0.32715  1
 C  C3  1  0.60678  0.65617  0.17285  1
 C  C4  1  0.39322  0.34383  0.17285  1
 C  C5  1  0.84383  0.89322  0.67285  1
 C  C6  1  0.65617  0.39322  0.82715  1
 C  C7  1  0.15617  0.10678  0.67285  1
 C  C8  1  0.34383  0.60678  0.82715  1
 H  H1  1  0.15692  0.75902  0.40873  1
 H  H2  1  0.25902  0.65692  0.90873  1
 H  H3  1  0.65692  0.74098  0.09127  1
 H  H4  1  0.84308  0.24098  0.40873  1
 H  H5  1  0.34308  0.25902  0.09127  1
 H  H6  1  0.74098  0.34308  0.90873  1
 H  H7  1  0.24098  0.15692  0.59127  1
 H  H8  1  0.20179  0.03430  0.77562  1
 H  H9  1  0.03430  0.79821  0.22438  1
 H  H10  1  0.53430  0.70179  0.27562  1
 H  H11  1  0.96570  0.20179  0.22438  1
 H  H12  1  0.46570  0.29821  0.27562  1
 H  H13  1  0.79821  0.96570  0.77562  1
 H  H14  1  0.70179  0.46570  0.72438  1
 H  H15  1  0.29821  0.53430  0.72438  1
 H  H16  1  0.75902  0.84308  0.59127  1
 I  I1  1  0.71923  0.05904  0.17421  1
 I  I2  1  0.21923  0.44096  0.32579  1
 I  I3  1  0.94096  0.71923  0.82579  1
 I  I4  1  0.78077  0.55904  0.32579  1
 I  I5  1  0.44096  0.78077  0.67421  1
 I  I6  1  0.05904  0.28077  0.82579  1
 I  I7  1  0.55904  0.21923  0.67421  1
 I  I8  1  0.28077  0.94096  0.17421  1
 Sn  Sn1  1  0.50000  0.50000  0.00000  1
 Sn  Sn2  1  0.00000  0.00000  0.50000  1
