CIF file written using JARVIS-Tools package.
data_K2PbO2
_symmetry_space_group_name_H-M  'P-1'
_cell_length_a       7.37158
_cell_length_b       7.50976
_cell_length_c       9.94417
_cell_angle_alpha    84.5269
_cell_angle_beta     110.425
_cell_angle_gamma    118.889

_symmetry_Int_Tables_number  2
_chemical_formula_structural  K2PbO2
_chemical_formula_sum  K8Pb4O8
_cell_volume  449.88662176469404
_cell_formula_units_Z  4
loop_
  _symmetry_equiv_pos_site_id
 _symmetry_equiv_pos_as_xyz
 1  'x, y, z'
loop_
 _atom_site_type_symbol
 _atom_site_label
 _atom_site_symmetry_multiplicity
 _atom_site_fract_x
 _atom_site_fract_y
 _atom_site_fract_z
 _atom_site_fract_occupancy
 K  K1  1  0.23651  0.72815  0.50588  1
 K  K2  1  0.07873  0.07182  0.82673  1
 K  K3  1  0.93277  0.45022  0.16814  1
 K  K4  1  0.92127  0.92818  0.17327  1
 K  K5  1  0.60334  0.56871  0.86241  1
 K  K6  1  0.06723  0.54978  0.83186  1
 K  K7  1  0.39666  0.43129  0.13759  1
 K  K8  1  0.76349  0.27185  0.49412  1
 O  O1  1  0.18655  0.39887  0.65036  1
 O  O2  1  0.05595  0.78163  0.01665  1
 O  O3  1  0.50069  0.79490  0.00670  1
 O  O4  1  0.94405  0.21837  0.98335  1
 O  O5  1  0.81345  0.60113  0.34964  1
 O  O6  1  0.33727  0.52473  0.36665  1
 O  O7  1  0.66273  0.47527  0.63335  1
 O  O8  1  0.49931  0.20510  0.99330  1
 Pb  Pb1  1  0.59748  0.06092  0.86304  1
 Pb  Pb2  1  0.29309  0.27986  0.52234  1
 Pb  Pb3  1  0.40252  0.93908  0.13696  1
 Pb  Pb4  1  0.70691  0.72014  0.47766  1
