CIF file written using JARVIS-Tools package.
data_GaNi6Ge
_symmetry_space_group_name_H-M  'P4/mmm'
_cell_length_a       3.56734
_cell_length_b       3.56734
_cell_length_c       7.13484
_cell_angle_alpha    90
_cell_angle_beta     90
_cell_angle_gamma    90

_symmetry_Int_Tables_number  123
_chemical_formula_structural  GaNi6Ge
_chemical_formula_sum  GaNi6Ge
_cell_volume  90.79709340082906
_cell_formula_units_Z  1
loop_
  _symmetry_equiv_pos_site_id
 _symmetry_equiv_pos_as_xyz
 1  'x, y, z'
loop_
 _atom_site_type_symbol
 _atom_site_label
 _atom_site_symmetry_multiplicity
 _atom_site_fract_x
 _atom_site_fract_y
 _atom_site_fract_z
 _atom_site_fract_occupancy
 Ga  Ga1  1  0.00000  0.00000  0.00000  1
 Ge  Ge1  1  0.00000  0.00000  0.50000  1
 Ni  Ni1  1  0.50000  0.50000  0.00000  1
 Ni  Ni2  1  0.50000  0.50000  0.50000  1
 Ni  Ni3  1  0.50000  0.00000  0.25123  1
 Ni  Ni4  1  0.50000  0.00000  0.74877  1
 Ni  Ni5  1  0.00000  0.50000  0.25123  1
 Ni  Ni6  1  0.00000  0.50000  0.74877  1
