CIF file written using JARVIS-Tools package.
data_AlH3O3
_symmetry_space_group_name_H-M  'P2_1/c'
_cell_length_a       5.07555
_cell_length_b       8.72617
_cell_length_c       9.32379
_cell_angle_alpha    90
_cell_angle_beta     90.3739
_cell_angle_gamma    90

_symmetry_Int_Tables_number  14
_chemical_formula_structural  AlH3O3
_chemical_formula_sum  Al8H24O24
_cell_volume  412.94255493783345
_cell_formula_units_Z  8
loop_
  _symmetry_equiv_pos_site_id
 _symmetry_equiv_pos_as_xyz
 1  'x, y, z'
loop_
 _atom_site_type_symbol
 _atom_site_label
 _atom_site_symmetry_multiplicity
 _atom_site_fract_x
 _atom_site_fract_y
 _atom_site_fract_z
 _atom_site_fract_occupancy
 Al  Al1  1  0.46362  0.83286  0.50358  1
 Al  Al2  1  0.02921  0.33499  0.49639  1
 Al  Al3  1  0.96362  0.66714  0.00358  1
 Al  Al4  1  0.52921  0.16501  0.99639  1
 Al  Al5  1  0.03638  0.33286  0.99642  1
 Al  Al6  1  0.97079  0.66501  0.50361  1
 Al  Al7  1  0.47079  0.83499  0.00361  1
 Al  Al8  1  0.53638  0.16714  0.49642  1
 H  H1  1  0.23573  0.73406  0.71565  1
 H  H2  1  0.68733  0.45846  0.12899  1
 H  H3  1  0.14407  0.09809  0.34666  1
 H  H4  1  0.26427  0.23406  0.78435  1
 H  H5  1  0.18733  0.04154  0.62899  1
 H  H6  1  0.17427  0.79564  0.28995  1
 H  H7  1  0.76427  0.26594  0.28435  1
 H  H8  1  0.85593  0.90191  0.65334  1
 H  H9  1  0.95396  0.49447  0.71060  1
 H  H10  1  0.04425  0.91905  0.88485  1
 H  H11  1  0.95575  0.08095  0.11515  1
 H  H12  1  0.31267  0.54154  0.87101  1
 H  H13  1  0.81267  0.95846  0.37101  1
 H  H14  1  0.73573  0.76594  0.21565  1
 H  H15  1  0.35593  0.59809  0.15334  1
 H  H16  1  0.04604  0.50553  0.28940  1
 H  H17  1  0.54604  0.99447  0.78940  1
 H  H18  1  0.45575  0.41905  0.61515  1
 H  H19  1  0.82573  0.20436  0.71005  1
 H  H20  1  0.32573  0.29564  0.21005  1
 H  H21  1  0.64407  0.40191  0.84666  1
 H  H22  1  0.67427  0.70436  0.78995  1
 H  H23  1  0.45396  0.00553  0.21060  1
 H  H24  1  0.54425  0.58095  0.38485  1
 O  O1  1  0.87254  0.48965  0.61378  1
 O  O2  1  0.87188  0.48762  0.11186  1
 O  O3  1  0.14590  0.82377  0.89601  1
 O  O4  1  0.62812  0.98762  0.38814  1
 O  O5  1  0.37254  0.01035  0.11378  1
 O  O6  1  0.62746  0.98965  0.88622  1
 O  O7  1  0.27537  0.69243  0.11809  1
 O  O8  1  0.77515  0.80397  0.11822  1
 O  O9  1  0.22463  0.19243  0.38191  1
 O  O10  1  0.22485  0.19603  0.88178  1
 O  O11  1  0.12746  0.51035  0.38622  1
 O  O12  1  0.27515  0.69603  0.61822  1
 O  O13  1  0.64590  0.67623  0.39601  1
 O  O14  1  0.72463  0.30757  0.88191  1
 O  O15  1  0.72485  0.30397  0.38178  1
 O  O16  1  0.77537  0.80757  0.61809  1
 O  O17  1  0.64203  0.67271  0.89056  1
 O  O18  1  0.85797  0.17271  0.60944  1
 O  O19  1  0.37188  0.01238  0.61186  1
 O  O20  1  0.35410  0.32377  0.60399  1
 O  O21  1  0.14203  0.82729  0.39056  1
 O  O22  1  0.85410  0.17623  0.10399  1
 O  O23  1  0.12812  0.51238  0.88814  1
 O  O24  1  0.35797  0.32729  0.10944  1
