CIF file written using JARVIS-Tools package.
data_NbMoS4
_symmetry_space_group_name_H-M  'Pm'
_cell_length_a       3.28521
_cell_length_b       5.69714
_cell_length_c       6.35695
_cell_angle_alpha    72.4488
_cell_angle_beta     90
_cell_angle_gamma    90

_symmetry_Int_Tables_number  6
_chemical_formula_structural  NbMoS4
_chemical_formula_sum  NbMoS4
_cell_volume  113.43990332190945
_cell_formula_units_Z  1
loop_
  _symmetry_equiv_pos_site_id
 _symmetry_equiv_pos_as_xyz
 1  'x, y, z'
loop_
 _atom_site_type_symbol
 _atom_site_label
 _atom_site_symmetry_multiplicity
 _atom_site_fract_x
 _atom_site_fract_y
 _atom_site_fract_z
 _atom_site_fract_occupancy
 Mo  Mo1  1  0.00000  0.00242  0.00078  1
 Nb  Nb1  1  0.50000  0.49599  0.00121  1
 S  S1  1  0.00000  0.41538  0.74000  1
 S  S2  1  0.50000  0.92461  0.74622  1
 S  S3  1  0.50000  0.75359  0.25507  1
 S  S4  1  0.00000  0.24000  0.26071  1
