CIF file written using JARVIS-Tools package.
data_Rb2Ag2GeS4
_symmetry_space_group_name_H-M  'C2/c'
_cell_length_a       6.36196
_cell_length_b       7.38012
_cell_length_c       11.696
_cell_angle_alpha    101.679
_cell_angle_beta     98.0943
_cell_angle_gamma    114.567

_symmetry_Int_Tables_number  15
_chemical_formula_structural  Rb2Ag2GeS4
_chemical_formula_sum  Rb4Ag4Ge2S8
_cell_volume  473.24052175287704
_cell_formula_units_Z  2
loop_
  _symmetry_equiv_pos_site_id
 _symmetry_equiv_pos_as_xyz
 1  'x, y, z'
loop_
 _atom_site_type_symbol
 _atom_site_label
 _atom_site_symmetry_multiplicity
 _atom_site_fract_x
 _atom_site_fract_y
 _atom_site_fract_z
 _atom_site_fract_occupancy
 Ag  Ag1  1  0.06345  0.31345  0.62689  1
 Ag  Ag2  1  0.20960  0.45960  0.91920  1
 Ag  Ag3  1  0.93655  0.68655  0.37311  1
 Ag  Ag4  1  0.79040  0.54040  0.08080  1
 Ge  Ge1  1  0.37276  0.62276  0.24552  1
 Ge  Ge2  1  0.62724  0.37724  0.75448  1
 Rb  Rb1  1  0.55874  0.80874  0.61747  1
 Rb  Rb2  1  0.44126  0.19126  0.38253  1
 Rb  Rb3  1  0.81106  0.06106  0.12213  1
 Rb  Rb4  1  0.18894  0.93894  0.87787  1
 S  S1  1  0.72441  0.88522  0.36390  1
 S  S2  1  0.86051  0.52132  0.63610  1
 S  S3  1  0.22169  0.77334  0.12983  1
 S  S4  1  0.77831  0.22666  0.87017  1
 S  S5  1  0.13949  0.47868  0.36390  1
 S  S6  1  0.40814  0.35649  0.12983  1
 S  S7  1  0.27559  0.11478  0.63610  1
 S  S8  1  0.59186  0.64351  0.87017  1
