CIF file written using JARVIS-Tools package.
data_Ca2Mn3O8
_symmetry_space_group_name_H-M  'C2/m'
_cell_length_a       4.97111
_cell_length_b       5.86942
_cell_length_c       6.25427
_cell_angle_alpha    117.984
_cell_angle_beta     107.316
_cell_angle_gamma    89.9999

_symmetry_Int_Tables_number  12
_chemical_formula_structural  Ca2Mn3O8
_chemical_formula_sum  Ca2Mn3O8
_cell_volume  151.71763621425436
_cell_formula_units_Z  1
loop_
  _symmetry_equiv_pos_site_id
 _symmetry_equiv_pos_as_xyz
 1  'x, y, z'
loop_
 _atom_site_type_symbol
 _atom_site_label
 _atom_site_symmetry_multiplicity
 _atom_site_fract_x
 _atom_site_fract_y
 _atom_site_fract_z
 _atom_site_fract_occupancy
 Ca  Ca1  1  0.66654  0.72498  0.44996  1
 Ca  Ca2  1  0.33345  0.27502  0.55004  1
 Mn  Mn1  1  0.50000  1.00000  -0.00000  1
 Mn  Mn2  1  1.00000  0.74078  -0.00000  1
 Mn  Mn3  1  1.00000  0.25922  0.00000  1
 O  O1  1  0.04144  0.39662  0.79325  1
 O  O2  1  0.95856  0.60338  0.20675  1
 O  O3  1  0.09765  0.90305  0.80609  1
 O  O4  1  0.90235  0.09695  0.19391  1
 O  O5  1  0.39186  0.32333  0.20128  1
 O  O6  1  0.39186  0.87795  0.20128  1
 O  O7  1  0.60814  0.12205  0.79872  1
 O  O8  1  0.60814  0.67667  0.79872  1
