CIF file written using JARVIS-Tools package.
data_AlSCl3O2
_symmetry_space_group_name_H-M  'P-1'
_cell_length_a       6.12847
_cell_length_b       7.22936
_cell_length_c       7.75439
_cell_angle_alpha    95.2718
_cell_angle_beta     105.343
_cell_angle_gamma    108.772

_symmetry_Int_Tables_number  2
_chemical_formula_structural  AlSCl3O2
_chemical_formula_sum  Al2S2Cl6O4
_cell_volume  307.7382787039319
_cell_formula_units_Z  2
loop_
  _symmetry_equiv_pos_site_id
 _symmetry_equiv_pos_as_xyz
 1  'x, y, z'
loop_
 _atom_site_type_symbol
 _atom_site_label
 _atom_site_symmetry_multiplicity
 _atom_site_fract_x
 _atom_site_fract_y
 _atom_site_fract_z
 _atom_site_fract_occupancy
 Al  Al1  1  0.72039  0.19952  0.84492  1
 Al  Al2  1  0.27961  0.80048  0.15508  1
 Cl  Cl1  1  0.90019  0.72281  0.08862  1
 Cl  Cl2  1  0.06343  0.80136  0.61870  1
 Cl  Cl3  1  0.09981  0.27719  0.91138  1
 Cl  Cl4  1  0.44402  0.65729  0.34693  1
 Cl  Cl5  1  0.93657  0.19864  0.38130  1
 Cl  Cl6  1  0.55598  0.34271  0.65307  1
 O  O1  1  0.58143  0.93248  0.75860  1
 O  O2  1  0.63336  0.23106  0.04622  1
 O  O3  1  0.36664  0.76894  0.95378  1
 O  O4  1  0.41857  0.06752  0.24140  1
 S  S1  1  0.37684  0.74824  0.76084  1
 S  S2  1  0.62316  0.25176  0.23916  1
