CIF file written using JARVIS-Tools package.
data_NbSb2
_symmetry_space_group_name_H-M  'C2/m'
_cell_length_a       3.69148
_cell_length_b       5.51391
_cell_length_c       7.59116
_cell_angle_alpha    78.4106
_cell_angle_beta     75.9278
_cell_angle_gamma    70.4431

_symmetry_Int_Tables_number  12
_chemical_formula_structural  NbSb2
_chemical_formula_sum  Nb2Sb4
_cell_volume  140.01838112905523
_cell_formula_units_Z  2
loop_
  _symmetry_equiv_pos_site_id
 _symmetry_equiv_pos_as_xyz
 1  'x, y, z'
loop_
 _atom_site_type_symbol
 _atom_site_label
 _atom_site_symmetry_multiplicity
 _atom_site_fract_x
 _atom_site_fract_y
 _atom_site_fract_z
 _atom_site_fract_occupancy
 Nb  Nb1  1  0.84809  0.11361  0.19021  1
 Nb  Nb2  1  0.15191  0.88639  0.80979  1
 Sb  Sb1  1  0.59440  0.69942  0.11178  1
 Sb  Sb2  1  0.40560  0.30058  0.88822  1
 Sb  Sb3  1  0.14880  0.23857  0.46383  1
 Sb  Sb4  1  0.85120  0.76143  0.53617  1
