CIF file written using JARVIS-Tools package.
data_CaTiO3
_symmetry_space_group_name_H-M  'Pnma'
_cell_length_a       7.69285
_cell_length_b       7.66689
_cell_length_c       7.69288
_cell_angle_alpha    90
_cell_angle_beta     91.0837
_cell_angle_gamma    90

_symmetry_Int_Tables_number  62
_chemical_formula_structural  CaTiO3
_chemical_formula_sum  Ca8Ti8O24
_cell_volume  453.64630736140856
_cell_formula_units_Z  8
loop_
  _symmetry_equiv_pos_site_id
 _symmetry_equiv_pos_as_xyz
 1  'x, y, z'
loop_
 _atom_site_type_symbol
 _atom_site_label
 _atom_site_symmetry_multiplicity
 _atom_site_fract_x
 _atom_site_fract_y
 _atom_site_fract_z
 _atom_site_fract_occupancy
 Ca  Ca1  1  0.72313  0.25000  0.76750  1
 Ca  Ca2  1  0.27687  0.75000  0.23250  1
 Ca  Ca3  1  0.23250  0.25000  0.77687  1
 Ca  Ca4  1  0.76750  0.75000  0.22313  1
 Ca  Ca5  1  0.73250  0.25000  0.27687  1
 Ca  Ca6  1  0.26750  0.75000  0.72313  1
 Ca  Ca7  1  0.22313  0.25000  0.26750  1
 Ca  Ca8  1  0.77687  0.75000  0.73250  1
 O  O1  1  0.45836  0.45825  0.74958  1
 O  O2  1  0.75042  0.45825  0.54164  1
 O  O3  1  0.95017  0.75000  0.47026  1
 O  O4  1  0.24958  0.54175  0.45836  1
 O  O5  1  0.75042  0.04175  0.54164  1
 O  O6  1  0.95836  0.45825  0.24958  1
 O  O7  1  0.25042  0.45825  0.04164  1
 O  O8  1  0.04164  0.54175  0.75042  1
 O  O9  1  0.95836  0.04175  0.24958  1
 O  O10  1  0.45836  0.04175  0.74958  1
 O  O11  1  0.04983  0.25000  0.52974  1
 O  O12  1  0.52974  0.75000  0.54983  1
 O  O13  1  0.47026  0.25000  0.45017  1
 O  O14  1  0.04164  0.95825  0.75042  1
 O  O15  1  0.54164  0.54175  0.25042  1
 O  O16  1  0.54983  0.25000  0.02974  1
 O  O17  1  0.97026  0.25000  0.95017  1
 O  O18  1  0.45017  0.75000  0.97026  1
 O  O19  1  0.24958  0.95825  0.45836  1
 O  O20  1  0.74958  0.54175  0.95836  1
 O  O21  1  0.25042  0.04175  0.04164  1
 O  O22  1  0.54164  0.95825  0.25042  1
 O  O23  1  0.02974  0.75000  0.04983  1
 O  O24  1  0.74958  0.95825  0.95836  1
 Ti  Ti1  1  0.50000  0.00000  -0.00000  1
 Ti  Ti2  1  0.50000  0.50000  0.50000  1
 Ti  Ti3  1  0.50000  0.00000  0.50000  1
 Ti  Ti4  1  0.50000  0.50000  -0.00000  1
 Ti  Ti5  1  -0.00000  0.00000  0.50000  1
 Ti  Ti6  1  -0.00000  0.50000  0.50000  1
 Ti  Ti7  1  0.00000  0.50000  0.00000  1
 Ti  Ti8  1  0.00000  0.00000  0.00000  1
