CIF file written using JARVIS-Tools package.
data_Tb2TeS2
_symmetry_space_group_name_H-M  'Immm'
_cell_length_a       7.54355
_cell_length_b       7.54355
_cell_length_c       7.54355
_cell_angle_alpha    147.662
_cell_angle_beta     138.208
_cell_angle_gamma    53.8089

_symmetry_Int_Tables_number  71
_chemical_formula_structural  Tb2TeS2
_chemical_formula_sum  Tb2TeS2
_cell_volume  152.0835687602387
_cell_formula_units_Z  1
loop_
  _symmetry_equiv_pos_site_id
 _symmetry_equiv_pos_as_xyz
 1  'x, y, z'
loop_
 _atom_site_type_symbol
 _atom_site_label
 _atom_site_symmetry_multiplicity
 _atom_site_fract_x
 _atom_site_fract_y
 _atom_site_fract_z
 _atom_site_fract_occupancy
 S  S1  1  0.70134  0.70134  -0.00000  1
 S  S2  1  0.29866  0.29866  0.00000  1
 Tb  Tb1  1  0.83302  0.33302  0.50000  1
 Tb  Tb2  1  0.16698  0.66698  0.50000  1
 Te  Te1  1  0.00000  0.00000  0.00000  1
