CIF file written using JARVIS-Tools package.
data_Lu3O2F5
_symmetry_space_group_name_H-M  'Pnma'
_cell_length_a       5.22361
_cell_length_b       5.50465
_cell_length_c       16.8054
_cell_angle_alpha    90
_cell_angle_beta     90
_cell_angle_gamma    90

_symmetry_Int_Tables_number  62
_chemical_formula_structural  Lu3O2F5
_chemical_formula_sum  Lu2O8F20
_cell_volume  483.2246443762349
_cell_formula_units_Z  4
loop_
  _symmetry_equiv_pos_site_id
 _symmetry_equiv_pos_as_xyz
 1  'x, y, z'
loop_
 _atom_site_type_symbol
 _atom_site_label
 _atom_site_symmetry_multiplicity
 _atom_site_fract_x
 _atom_site_fract_y
 _atom_site_fract_z
 _atom_site_fract_occupancy
 F  F1  1  0.28279  0.11589  0.01372  1
 F  F2  1  0.71721  0.88411  0.51372  1
 F  F3  1  0.71721  0.88411  0.98628  1
 F  F4  1  0.21721  0.61589  0.01372  1
 F  F5  1  0.78279  0.38411  0.51372  1
 F  F6  1  0.28279  0.11589  0.48628  1
 F  F7  1  0.64167  0.88870  0.25000  1
 F  F8  1  0.35833  0.11130  0.75000  1
 F  F9  1  0.85833  0.38870  0.25000  1
 F  F10  1  0.67365  0.16392  0.37462  1
 F  F11  1  0.32635  0.83608  0.87462  1
 F  F12  1  0.14167  0.61130  0.75000  1
 F  F13  1  0.82635  0.66392  0.12538  1
 F  F14  1  0.17365  0.33608  0.87462  1
 F  F15  1  0.67365  0.16392  0.12538  1
 F  F16  1  0.32635  0.83608  0.62538  1
 F  F17  1  0.82635  0.66392  0.37462  1
 F  F18  1  0.78279  0.38411  0.98628  1
 F  F19  1  0.21721  0.61589  0.48628  1
 F  F20  1  0.17365  0.33608  0.62538  1
 Lu  Lu1  1  0.53866  0.17354  0.90284  1
 Lu  Lu2  1  0.95670  0.23930  0.75000  1
 Lu  Lu3  1  0.03866  0.32646  0.09716  1
 Lu  Lu4  1  0.96134  0.67354  0.59716  1
 Lu  Lu5  1  0.46134  0.82646  0.40284  1
 Lu  Lu6  1  0.46134  0.82646  0.09716  1
 Lu  Lu7  1  0.96134  0.67354  0.90284  1
 Lu  Lu8  1  0.04330  0.76070  0.25000  1
 Lu  Lu9  1  0.54330  0.73930  0.75000  1
 Lu  Lu10  1  0.45670  0.26070  0.25000  1
 Lu  Lu11  1  0.03866  0.32646  0.40284  1
 Lu  Lu12  1  0.53866  0.17354  0.59716  1
 O  O1  1  0.20074  0.03700  0.16848  1
 O  O2  1  0.29926  0.53700  0.16848  1
 O  O3  1  0.79926  0.96300  0.83152  1
 O  O4  1  0.79926  0.96300  0.66848  1
 O  O5  1  0.20074  0.03700  0.33152  1
 O  O6  1  0.70074  0.46300  0.83152  1
 O  O7  1  0.70074  0.46300  0.66848  1
 O  O8  1  0.29926  0.53700  0.33152  1
