CIF file written using JARVIS-Tools package.
data_Cu6SnGe
_symmetry_space_group_name_H-M  'Pmm2'
_cell_length_a       4.24907
_cell_length_b       4.68213
_cell_length_c       5.50191
_cell_angle_alpha    90
_cell_angle_beta     90
_cell_angle_gamma    90

_symmetry_Int_Tables_number  25
_chemical_formula_structural  Cu6SnGe
_chemical_formula_sum  Cu6SnGe
_cell_volume  109.45870846621462
_cell_formula_units_Z  1
loop_
  _symmetry_equiv_pos_site_id
 _symmetry_equiv_pos_as_xyz
 1  'x, y, z'
loop_
 _atom_site_type_symbol
 _atom_site_label
 _atom_site_symmetry_multiplicity
 _atom_site_fract_x
 _atom_site_fract_y
 _atom_site_fract_z
 _atom_site_fract_occupancy
 Cu  Cu1  1  0.50000  0.84505  0.73512  1
 Cu  Cu2  1  0.00000  0.16544  0.26380  1
 Cu  Cu3  1  0.00000  0.16544  0.73620  1
 Cu  Cu4  1  0.50000  0.84505  0.26488  1
 Cu  Cu5  1  0.00000  0.67086  0.50000  1
 Cu  Cu6  1  0.50000  0.29997  0.00000  1
 Ge  Ge1  1  0.50000  0.33851  0.50000  1
 Sn  Sn1  1  0.00000  0.66969  0.00000  1
