CIF file written using JARVIS-Tools package.
data_PrThCN
_symmetry_space_group_name_H-M  'R3m'
_cell_length_a       6.46834
_cell_length_b       6.46834
_cell_length_c       6.46835
_cell_angle_alpha    33.7525
_cell_angle_beta     33.7525
_cell_angle_gamma    33.7525

_symmetry_Int_Tables_number  160
_chemical_formula_structural  PrThCN
_chemical_formula_sum  PrThCN
_cell_volume  74.43809645157619
_cell_formula_units_Z  1
loop_
  _symmetry_equiv_pos_site_id
 _symmetry_equiv_pos_as_xyz
 1  'x, y, z'
loop_
 _atom_site_type_symbol
 _atom_site_label
 _atom_site_symmetry_multiplicity
 _atom_site_fract_x
 _atom_site_fract_y
 _atom_site_fract_z
 _atom_site_fract_occupancy
 C  C1  1  0.99551  0.99551  0.99551  1
 N  N1  1  0.50706  0.50706  0.50706  1
 Pr  Pr1  1  0.74915  0.74915  0.74915  1
 Th  Th1  1  0.24827  0.24827  0.24827  1
