CIF file written using JARVIS-Tools package.
data_Na14Mn2O9
_symmetry_space_group_name_H-M  'P-3'
_cell_length_a       6.65676
_cell_length_b       6.65676
_cell_length_c       9.3196
_cell_angle_alpha    90
_cell_angle_beta     90
_cell_angle_gamma    120

_symmetry_Int_Tables_number  147
_chemical_formula_structural  Na14Mn2O9
_chemical_formula_sum  Na4Mn2O9
_cell_volume  357.64515976352413
_cell_formula_units_Z  1
loop_
  _symmetry_equiv_pos_site_id
 _symmetry_equiv_pos_as_xyz
 1  'x, y, z'
loop_
 _atom_site_type_symbol
 _atom_site_label
 _atom_site_symmetry_multiplicity
 _atom_site_fract_x
 _atom_site_fract_y
 _atom_site_fract_z
 _atom_site_fract_occupancy
 Mn  Mn1  1  0.66667  0.33333  0.73701  1
 Mn  Mn2  1  0.33333  0.66667  0.26299  1
 Na  Na1  1  0.00000  0.00000  0.25188  1
 Na  Na2  1  0.68996  0.06775  0.40823  1
 Na  Na3  1  0.62221  0.68996  0.59177  1
 Na  Na4  1  0.31004  0.93225  0.59177  1
 Na  Na5  1  0.06775  0.37779  0.59177  1
 Na  Na6  1  0.37779  0.31004  0.40823  1
 Na  Na7  1  0.00000  0.00000  0.74812  1
 Na  Na8  1  0.93225  0.62221  0.40823  1
 Na  Na9  1  0.36077  0.03966  0.09134  1
 Na  Na10  1  0.96034  0.32111  0.09134  1
 Na  Na11  1  0.67889  0.63923  0.09134  1
 Na  Na12  1  0.63923  0.96034  0.90866  1
 Na  Na13  1  0.32111  0.36077  0.90866  1
 Na  Na14  1  0.03966  0.67889  0.90866  1
 O  O1  1  0.35936  0.30458  0.66292  1
 O  O2  1  0.64064  0.69542  0.33708  1
 O  O3  1  0.94522  0.64064  0.66292  1
 O  O4  1  0.69542  0.05478  0.66292  1
 O  O5  1  0.33333  0.66667  0.04090  1
 O  O6  1  0.00000  0.00000  0.00000  1
 O  O7  1  0.66667  0.33333  0.95910  1
 O  O8  1  0.30458  0.94522  0.33708  1
 O  O9  1  0.05478  0.35936  0.33708  1
