CIF file written using JARVIS-Tools package.
data_NdCdAu
_symmetry_space_group_name_H-M  'P-62m'
_cell_length_a       7.90893
_cell_length_b       7.90894
_cell_length_c       4.04279
_cell_angle_alpha    90
_cell_angle_beta     90
_cell_angle_gamma    120

_symmetry_Int_Tables_number  189
_chemical_formula_structural  NdCdAu
_chemical_formula_sum  Nd3Cd3Au3
_cell_volume  219.00161810527956
_cell_formula_units_Z  3
loop_
  _symmetry_equiv_pos_site_id
 _symmetry_equiv_pos_as_xyz
 1  'x, y, z'
loop_
 _atom_site_type_symbol
 _atom_site_label
 _atom_site_symmetry_multiplicity
 _atom_site_fract_x
 _atom_site_fract_y
 _atom_site_fract_z
 _atom_site_fract_occupancy
 Au  Au1  1  0.33333  0.66667  0.50000  1
 Au  Au2  1  0.66667  0.33333  0.50000  1
 Au  Au3  1  0.00000  0.00000  0.00000  1
 Cd  Cd1  1  0.25840  0.00000  0.50000  1
 Cd  Cd2  1  0.00000  0.25840  0.50000  1
 Cd  Cd3  1  0.74160  0.74160  0.50000  1
 Nd  Nd1  1  0.59632  0.00000  0.00000  1
 Nd  Nd2  1  0.00000  0.59632  0.00000  1
 Nd  Nd3  1  0.40368  0.40368  0.00000  1
