CIF file written using JARVIS-Tools package.
data_BaZnIn3
_symmetry_space_group_name_H-M  'I4mm'
_cell_length_a       6.90295
_cell_length_b       6.90295
_cell_length_c       6.90295
_cell_angle_alpha    138.874
_cell_angle_beta     138.874
_cell_angle_gamma    59.567

_symmetry_Int_Tables_number  107
_chemical_formula_structural  BaZnIn3
_chemical_formula_sum  BaZnIn3
_cell_volume  140.87681711358215
_cell_formula_units_Z  1
loop_
  _symmetry_equiv_pos_site_id
 _symmetry_equiv_pos_as_xyz
 1  'x, y, z'
loop_
 _atom_site_type_symbol
 _atom_site_label
 _atom_site_symmetry_multiplicity
 _atom_site_fract_x
 _atom_site_fract_y
 _atom_site_fract_z
 _atom_site_fract_occupancy
 Ba  Ba1  1  0.00299  0.00299  0.00000  1
 In  In1  1  0.74220  0.24220  0.50000  1
 In  In2  1  0.24220  0.74220  0.50000  1
 In  In3  1  0.39362  0.39362  0.00000  1
 Zn  Zn1  1  0.61899  0.61899  -0.00000  1
