CIF file written using JARVIS-Tools package.
data_LiMn2P2O8
_symmetry_space_group_name_H-M  'P2_1/c'
_cell_length_a       4.80138
_cell_length_b       10.0131
_cell_length_c       6.05166
_cell_angle_alpha    90
_cell_angle_beta     90.6848
_cell_angle_gamma    90

_symmetry_Int_Tables_number  14
_chemical_formula_structural  LiMn2P2O8
_chemical_formula_sum  Li2Mn4P4O6
_cell_volume  290.9230117945848
_cell_formula_units_Z  2
loop_
  _symmetry_equiv_pos_site_id
 _symmetry_equiv_pos_as_xyz
 1  'x, y, z'
loop_
 _atom_site_type_symbol
 _atom_site_label
 _atom_site_symmetry_multiplicity
 _atom_site_fract_x
 _atom_site_fract_y
 _atom_site_fract_z
 _atom_site_fract_occupancy
 Li  Li1  1  0.25008  0.79705  0.74979  1
 Li  Li2  1  0.74992  0.29705  0.25021  1
 Mn  Mn1  1  0.29725  0.51608  0.99824  1
 Mn  Mn2  1  0.20280  0.07821  0.50181  1
 Mn  Mn3  1  0.79720  0.57821  0.49819  1
 Mn  Mn4  1  0.70275  0.01608  0.00176  1
 O  O1  1  0.07457  0.34995  0.00040  1
 O  O2  1  0.51618  0.68796  0.98508  1
 O  O3  1  0.48382  0.18796  0.01492  1
 O  O4  1  0.98413  0.63697  0.79435  1
 O  O5  1  0.51590  0.95736  0.70561  1
 O  O6  1  0.46581  0.47016  0.69683  1
 O  O7  1  0.03410  0.12418  0.80318  1
 O  O8  1  0.01614  0.40630  0.48508  1
 O  O9  1  0.57449  0.74438  0.50041  1
 O  O10  1  0.01587  0.13697  0.20565  1
 O  O11  1  0.48410  0.45736  0.29439  1
 O  O12  1  0.42551  0.24438  0.49959  1
 O  O13  1  0.96590  0.62418  0.19682  1
 O  O14  1  0.98386  0.90630  0.51492  1
 O  O15  1  0.53419  0.97016  0.30317  1
 O  O16  1  0.92543  0.84995  -0.00040  1
 P  P1  1  0.33453  0.39229  0.49947  1
 P  P2  1  0.83458  0.70203  0.99945  1
 P  P3  1  0.66547  0.89229  0.50053  1
 P  P4  1  0.16542  0.20203  0.00055  1
