CIF file written using JARVIS-Tools package.
data_Na5GeP3
_symmetry_space_group_name_H-M  'P2_1/c'
_cell_length_a       8.09065
_cell_length_b       7.35632
_cell_length_c       15.4275
_cell_angle_alpha    90
_cell_angle_beta     121.628
_cell_angle_gamma    90

_symmetry_Int_Tables_number  14
_chemical_formula_structural  Na5GeP3
_chemical_formula_sum  Na20Ge4P2
_cell_volume  781.8258643118149
_cell_formula_units_Z  4
loop_
  _symmetry_equiv_pos_site_id
 _symmetry_equiv_pos_as_xyz
 1  'x, y, z'
loop_
 _atom_site_type_symbol
 _atom_site_label
 _atom_site_symmetry_multiplicity
 _atom_site_fract_x
 _atom_site_fract_y
 _atom_site_fract_z
 _atom_site_fract_occupancy
 Ge  Ge1  1  0.48427  0.14343  0.41261  1
 Ge  Ge2  1  0.51573  0.64343  0.08739  1
 Ge  Ge3  1  0.51573  0.85657  0.58739  1
 Ge  Ge4  1  0.48427  0.35657  0.91261  1
 Na  Na1  1  0.16767  0.85159  0.24206  1
 Na  Na2  1  0.15911  0.16314  0.08095  1
 Na  Na3  1  0.84089  0.66314  0.41905  1
 Na  Na4  1  0.84089  0.83686  0.91905  1
 Na  Na5  1  0.56367  0.50449  0.74152  1
 Na  Na6  1  0.43633  0.00449  0.75848  1
 Na  Na7  1  0.43633  0.49551  0.25848  1
 Na  Na8  1  0.56367  0.99551  0.24152  1
 Na  Na9  1  0.08468  0.48190  0.91241  1
 Na  Na10  1  0.16767  0.64841  0.74206  1
 Na  Na11  1  0.08468  0.01810  0.41241  1
 Na  Na12  1  0.91532  0.51810  0.08759  1
 Na  Na13  1  0.24522  0.53385  0.41511  1
 Na  Na14  1  0.75478  0.03385  0.08489  1
 Na  Na15  1  0.75478  0.46615  0.58489  1
 Na  Na16  1  0.83233  0.35159  0.25794  1
 Na  Na17  1  0.83233  0.14841  0.75794  1
 Na  Na18  1  0.24522  0.96615  0.91511  1
 Na  Na19  1  0.15911  0.33686  0.58095  1
 Na  Na20  1  0.91532  0.98190  0.58759  1
 P  P1  1  0.81679  0.73790  0.22915  1
 P  P2  1  0.47772  0.31024  0.06676  1
 P  P3  1  0.52228  0.81024  0.43324  1
 P  P4  1  0.52228  0.68976  0.93324  1
 P  P5  1  0.47772  0.18976  0.56676  1
 P  P6  1  0.76415  0.26323  0.41845  1
 P  P7  1  0.18321  0.26210  0.77085  1
 P  P8  1  0.81679  0.76210  0.72915  1
 P  P9  1  0.23585  0.76323  0.08155  1
 P  P10  1  0.76415  0.23677  0.91845  1
 P  P11  1  0.18321  0.23790  0.27085  1
 P  P12  1  0.23585  0.73677  0.58155  1
