CIF file written using JARVIS-Tools package.
data_TbSr3
_symmetry_space_group_name_H-M  'P6_3/mmc'
_cell_length_a       7.99136
_cell_length_b       7.99136
_cell_length_c       6.46528
_cell_angle_alpha    90
_cell_angle_beta     90
_cell_angle_gamma    120

_symmetry_Int_Tables_number  194
_chemical_formula_structural  TbSr3
_chemical_formula_sum  Tb2Sr6
_cell_volume  357.5686582263449
_cell_formula_units_Z  2
loop_
  _symmetry_equiv_pos_site_id
 _symmetry_equiv_pos_as_xyz
 1  'x, y, z'
loop_
 _atom_site_type_symbol
 _atom_site_label
 _atom_site_symmetry_multiplicity
 _atom_site_fract_x
 _atom_site_fract_y
 _atom_site_fract_z
 _atom_site_fract_occupancy
 Sr  Sr1  1  0.17162  0.34323  0.25000  1
 Sr  Sr2  1  0.65677  0.82838  0.25000  1
 Sr  Sr3  1  0.17162  0.82838  0.25000  1
 Sr  Sr4  1  0.82838  0.65677  0.75000  1
 Sr  Sr5  1  0.34323  0.17162  0.75000  1
 Sr  Sr6  1  0.82838  0.17162  0.75000  1
 Tb  Tb1  1  0.33333  0.66667  0.75000  1
 Tb  Tb2  1  0.66667  0.33333  0.25000  1
