CIF file written using JARVIS-Tools package.
data_Tb2ZnCu
_symmetry_space_group_name_H-M  'P4/mmm'
_cell_length_a       3.50795
_cell_length_b       3.50795
_cell_length_c       7.01553
_cell_angle_alpha    90
_cell_angle_beta     90
_cell_angle_gamma    90

_symmetry_Int_Tables_number  123
_chemical_formula_structural  Tb2ZnCu
_chemical_formula_sum  Tb2ZnCu
_cell_volume  86.33104373285592
_cell_formula_units_Z  1
loop_
  _symmetry_equiv_pos_site_id
 _symmetry_equiv_pos_as_xyz
 1  'x, y, z'
loop_
 _atom_site_type_symbol
 _atom_site_label
 _atom_site_symmetry_multiplicity
 _atom_site_fract_x
 _atom_site_fract_y
 _atom_site_fract_z
 _atom_site_fract_occupancy
 Cu  Cu1  1  0.00000  0.00000  0.00000  1
 Tb  Tb1  1  0.50000  0.50000  0.24308  1
 Tb  Tb2  1  0.50000  0.50000  0.75692  1
 Zn  Zn1  1  0.00000  0.00000  0.50000  1
