CIF file written using JARVIS-Tools package.
data_RbCaBr3
_symmetry_space_group_name_H-M  'Pnma'
_cell_length_a       4.3553
_cell_length_b       9.50409
_cell_length_c       15.9521
_cell_angle_alpha    90
_cell_angle_beta     90
_cell_angle_gamma    90

_symmetry_Int_Tables_number  62
_chemical_formula_structural  RbCaBr3
_chemical_formula_sum  Rb4Ca4Br2
_cell_volume  660.3075186331417
_cell_formula_units_Z  4
loop_
  _symmetry_equiv_pos_site_id
 _symmetry_equiv_pos_as_xyz
 1  'x, y, z'
loop_
 _atom_site_type_symbol
 _atom_site_label
 _atom_site_symmetry_multiplicity
 _atom_site_fract_x
 _atom_site_fract_y
 _atom_site_fract_z
 _atom_site_fract_occupancy
 Br  Br1  1  0.25000  0.29854  0.21516  1
 Br  Br2  1  0.75000  0.33633  0.99158  1
 Br  Br3  1  0.25000  0.79854  0.28484  1
 Br  Br4  1  0.75000  0.83633  0.50842  1
 Br  Br5  1  0.25000  0.16367  0.49158  1
 Br  Br6  1  0.25000  0.66367  0.00842  1
 Br  Br7  1  0.75000  0.97657  0.10482  1
 Br  Br8  1  0.25000  0.52343  0.60482  1
 Br  Br9  1  0.75000  0.47657  0.39518  1
 Br  Br10  1  0.75000  0.20146  0.71516  1
 Br  Br11  1  0.75000  0.70146  0.78484  1
 Br  Br12  1  0.25000  0.02343  0.89518  1
 Ca  Ca1  1  0.75000  0.33091  0.55764  1
 Ca  Ca2  1  0.25000  0.66909  0.44236  1
 Ca  Ca3  1  0.75000  0.83091  0.94236  1
 Ca  Ca4  1  0.25000  0.16909  0.05764  1
 Rb  Rb1  1  0.25000  0.42242  0.82377  1
 Rb  Rb2  1  0.75000  0.57758  0.17623  1
 Rb  Rb3  1  0.25000  0.92242  0.67623  1
 Rb  Rb4  1  0.75000  0.07758  0.32377  1
