CIF file written using JARVIS-Tools package.
data_ZrSiO4
_symmetry_space_group_name_H-M  'I4_1/amd'
_cell_length_a       5.59455
_cell_length_b       5.59455
_cell_length_c       5.59455
_cell_angle_alpha    107.001
_cell_angle_beta     107.001
_cell_angle_gamma    114.534

_symmetry_Int_Tables_number  141
_chemical_formula_structural  ZrSiO4
_chemical_formula_sum  Zr2Si2O8
_cell_volume  133.99813684007106
_cell_formula_units_Z  2
loop_
  _symmetry_equiv_pos_site_id
 _symmetry_equiv_pos_as_xyz
 1  'x, y, z'
loop_
 _atom_site_type_symbol
 _atom_site_label
 _atom_site_symmetry_multiplicity
 _atom_site_fract_x
 _atom_site_fract_y
 _atom_site_fract_z
 _atom_site_fract_occupancy
 O  O1  1  0.80467  0.37016  0.06549  1
 O  O2  1  0.73918  0.80467  0.93451  1
 O  O3  1  0.37016  0.80467  0.56549  1
 O  O4  1  0.80467  0.73918  0.43451  1
 O  O5  1  0.26082  0.19533  0.06549  1
 O  O6  1  0.19533  0.62984  0.93451  1
 O  O7  1  0.19533  0.26082  0.56549  1
 O  O8  1  0.62984  0.19533  0.43451  1
 Si  Si1  1  0.62500  0.37500  0.25000  1
 Si  Si2  1  0.37500  0.62500  0.75000  1
 Zr  Zr1  1  0.12500  0.87500  0.25000  1
 Zr  Zr2  1  0.87500  0.12500  0.75000  1
