CIF file written using JARVIS-Tools package.
data_CdAu2F12
_symmetry_space_group_name_H-M  'C2/c'
_cell_length_a       7.26862
_cell_length_b       7.26861
_cell_length_c       9.45213
_cell_angle_alpha    104.025
_cell_angle_beta     111.535
_cell_angle_gamma    101.977

_symmetry_Int_Tables_number  15
_chemical_formula_structural  CdAu2F12
_chemical_formula_sum  Cd2Au4F24
_cell_volume  425.66255768133635
_cell_formula_units_Z  2
loop_
  _symmetry_equiv_pos_site_id
 _symmetry_equiv_pos_as_xyz
 1  'x, y, z'
loop_
 _atom_site_type_symbol
 _atom_site_label
 _atom_site_symmetry_multiplicity
 _atom_site_fract_x
 _atom_site_fract_y
 _atom_site_fract_z
 _atom_site_fract_occupancy
 Au  Au1  1  0.39443  0.24694  0.64693  1
 Au  Au2  1  0.89999  0.25250  0.14693  1
 Au  Au3  1  0.60557  0.75306  0.35307  1
 Au  Au4  1  0.10001  0.74750  0.85307  1
 Cd  Cd1  1  0.48529  0.23529  0.25000  1
 Cd  Cd2  1  0.51471  0.76471  0.75000  1
 F  F1  1  0.55895  0.08703  0.73640  1
 F  F2  1  0.44105  0.91297  0.26360  1
 F  F3  1  0.64513  0.31886  0.06861  1
 F  F4  1  0.24975  0.42348  0.56861  1
 F  F5  1  0.54358  0.27871  0.51295  1
 F  F6  1  0.19139  0.00414  0.47738  1
 F  F7  1  0.26577  0.03063  -0.01295  1
 F  F8  1  0.14938  0.17746  0.23640  1
 F  F9  1  0.85062  0.82254  0.76360  1
 F  F10  1  -0.02675  0.28599  0.97738  1
 F  F11  1  0.18346  0.78778  0.68380  1
 F  F12  1  0.02675  0.71401  0.02262  1
 F  F13  1  0.74812  0.77452  0.22030  1
 F  F14  1  0.45642  0.72129  0.48705  1
 F  F15  1  0.25188  0.22548  0.77970  1
 F  F16  1  0.05422  0.52782  0.27970  1
 F  F17  1  0.60398  0.49966  0.81620  1
 F  F18  1  0.94578  0.47218  0.72030  1
 F  F19  1  0.39602  0.50034  0.18380  1
 F  F20  1  0.35487  0.68114  0.93139  1
 F  F21  1  0.81654  0.21222  0.31620  1
 F  F22  1  0.75025  0.57652  0.43139  1
 F  F23  1  0.73423  0.96937  0.01295  1
 F  F24  1  0.80861  -0.00414  0.52262  1
