CIF file written using JARVIS-Tools package.
data_CdP2
_symmetry_space_group_name_H-M  'Pna2_1'
_cell_length_a       5.23105
_cell_length_b       5.46443
_cell_length_c       10.0149
_cell_angle_alpha    90
_cell_angle_beta     90
_cell_angle_gamma    90

_symmetry_Int_Tables_number  33
_chemical_formula_structural  CdP2
_chemical_formula_sum  Cd4P8
_cell_volume  286.27166715815173
_cell_formula_units_Z  4
loop_
  _symmetry_equiv_pos_site_id
 _symmetry_equiv_pos_as_xyz
 1  'x, y, z'
loop_
 _atom_site_type_symbol
 _atom_site_label
 _atom_site_symmetry_multiplicity
 _atom_site_fract_x
 _atom_site_fract_y
 _atom_site_fract_z
 _atom_site_fract_occupancy
 Cd  Cd1  1  0.24772  0.39738  0.34635  1
 Cd  Cd2  1  0.74772  0.60262  0.65365  1
 Cd  Cd3  1  0.24772  0.10262  0.84635  1
 Cd  Cd4  1  0.74772  0.89738  0.15365  1
 P  P1  1  0.59778  0.22839  0.50668  1
 P  P2  1  0.09778  0.77161  0.49332  1
 P  P3  1  0.59778  0.27161  0.00668  1
 P  P4  1  0.09778  0.72839  0.99332  1
 P  P5  1  0.40180  0.55956  0.12008  1
 P  P6  1  0.90180  0.44044  0.87992  1
 P  P7  1  0.40180  0.94044  0.62008  1
 P  P8  1  0.90180  0.05956  0.37992  1
