CIF file written using JARVIS-Tools package.
data_Ho2AlSi2
_symmetry_space_group_name_H-M  'Immm'
_cell_length_a       4.06765
_cell_length_b       5.57951
_cell_length_c       5.5795
_cell_angle_alpha    62.0087
_cell_angle_beta     68.6221
_cell_angle_gamma    68.6221

_symmetry_Int_Tables_number  71
_chemical_formula_structural  Ho2AlSi2
_chemical_formula_sum  Ho2AlSi2
_cell_volume  101.20060857508795
_cell_formula_units_Z  1
loop_
  _symmetry_equiv_pos_site_id
 _symmetry_equiv_pos_as_xyz
 1  'x, y, z'
loop_
 _atom_site_type_symbol
 _atom_site_label
 _atom_site_symmetry_multiplicity
 _atom_site_fract_x
 _atom_site_fract_y
 _atom_site_fract_z
 _atom_site_fract_occupancy
 Al  Al1  1  0.00000  0.00000  0.00000  1
 Ho  Ho1  1  0.78833  0.71167  0.71167  1
 Ho  Ho2  1  0.21167  0.28833  0.28833  1
 Si  Si1  1  0.50000  0.29013  0.70987  1
 Si  Si2  1  0.50000  0.70987  0.29013  1
