CIF file written using JARVIS-Tools package.
data_In2TeO6
_symmetry_space_group_name_H-M  'P321'
_cell_length_a       9.03022
_cell_length_b       9.03022
_cell_length_c       4.87126
_cell_angle_alpha    90
_cell_angle_beta     90
_cell_angle_gamma    120

_symmetry_Int_Tables_number  150
_chemical_formula_structural  In2TeO6
_chemical_formula_sum  In6Te3O8
_cell_volume  344.0085308575325
_cell_formula_units_Z  3
loop_
  _symmetry_equiv_pos_site_id
 _symmetry_equiv_pos_as_xyz
 1  'x, y, z'
loop_
 _atom_site_type_symbol
 _atom_site_label
 _atom_site_symmetry_multiplicity
 _atom_site_fract_x
 _atom_site_fract_y
 _atom_site_fract_z
 _atom_site_fract_occupancy
 In  In1  1  -0.00000  0.63014  0.00000  1
 In  In2  1  0.36986  0.36986  0.00000  1
 In  In3  1  0.63014  -0.00000  0.00000  1
 In  In4  1  -0.00000  0.29353  0.50000  1
 In  In5  1  0.70647  0.70647  0.50000  1
 In  In6  1  0.29353  -0.00000  0.50000  1
 O  O1  1  0.12047  0.20623  0.77885  1
 O  O2  1  0.79377  0.91424  0.77885  1
 O  O3  1  0.08576  0.87953  0.77885  1
 O  O4  1  0.87953  0.08576  0.22115  1
 O  O5  1  0.45943  0.23861  0.71626  1
 O  O6  1  0.91424  0.79377  0.22115  1
 O  O7  1  0.41052  0.87193  0.73436  1
 O  O8  1  0.20623  0.12047  0.22115  1
 O  O9  1  0.46142  0.58948  0.73436  1
 O  O10  1  0.23861  0.45943  0.28374  1
 O  O11  1  0.53858  0.12807  0.26564  1
 O  O12  1  0.12807  0.53858  0.73436  1
 O  O13  1  0.54057  0.77917  0.28374  1
 O  O14  1  0.22083  0.76139  0.28374  1
 O  O15  1  0.76139  0.22083  0.71626  1
 O  O16  1  0.58948  0.46142  0.26564  1
 O  O17  1  0.87193  0.41052  0.26564  1
 O  O18  1  0.77917  0.54057  0.71626  1
 Te  Te1  1  0.00000  0.00000  0.00000  1
 Te  Te2  1  0.66667  0.33333  0.49096  1
 Te  Te3  1  0.33333  0.66667  0.50904  1
