CIF file written using JARVIS-Tools package.
data_Li2CrO3
_symmetry_space_group_name_H-M  'Cmmm'
_cell_length_a       5.05063
_cell_length_b       5.05063
_cell_length_c       2.92709
_cell_angle_alpha    90
_cell_angle_beta     90
_cell_angle_gamma    134.918

_symmetry_Int_Tables_number  65
_chemical_formula_structural  Li2CrO3
_chemical_formula_sum  Li2CrO3
_cell_volume  52.87240810233193
_cell_formula_units_Z  1
loop_
  _symmetry_equiv_pos_site_id
 _symmetry_equiv_pos_as_xyz
 1  'x, y, z'
loop_
 _atom_site_type_symbol
 _atom_site_label
 _atom_site_symmetry_multiplicity
 _atom_site_fract_x
 _atom_site_fract_y
 _atom_site_fract_z
 _atom_site_fract_occupancy
 Cr  Cr1  1  0.00000  0.00000  0.00000  1
 Li  Li1  1  0.65395  0.34605  0.50000  1
 Li  Li2  1  0.34605  0.65395  0.50000  1
 O  O1  1  0.13565  0.86435  0.50000  1
 O  O2  1  0.86435  0.13565  0.50000  1
 O  O3  1  0.50000  0.50000  0.00000  1
