CIF file written using JARVIS-Tools package.
data_Li2MnFeB2O6
_symmetry_space_group_name_H-M  'P1'
_cell_length_a       5.16351
_cell_length_b       5.19142
_cell_length_c       5.90361
_cell_angle_alpha    90.5214
_cell_angle_beta     114.327
_cell_angle_gamma    119.642

_symmetry_Int_Tables_number  1
_chemical_formula_structural  Li2MnFeB2O6
_chemical_formula_sum  Li2MnFeB2O6
_cell_volume  120.71862146510561
_cell_formula_units_Z  1
loop_
  _symmetry_equiv_pos_site_id
 _symmetry_equiv_pos_as_xyz
 1  'x, y, z'
loop_
 _atom_site_type_symbol
 _atom_site_label
 _atom_site_symmetry_multiplicity
 _atom_site_fract_x
 _atom_site_fract_y
 _atom_site_fract_z
 _atom_site_fract_occupancy
 B  B1  1  0.17975  0.92138  0.25849  1
 B  B2  1  0.82118  0.07950  0.74282  1
 Fe  Fe1  1  0.16108  0.74827  0.76413  1
 Li  Li1  1  0.54980  0.61927  0.31511  1
 Li  Li2  1  0.45103  0.38106  0.68301  1
 Mn  Mn1  1  0.83350  0.24827  0.23371  1
 O  O1  1  0.94087  0.68231  0.30630  1
 O  O2  1  0.37609  0.87095  0.17956  1
 O  O3  1  0.23426  0.21014  0.29750  1
 O  O4  1  0.77932  0.79587  0.70631  1
 O  O5  1  0.61042  0.11643  0.81161  1
 O  O6  1  0.06271  0.32656  0.70146  1
