CIF file written using JARVIS-Tools package.
data_Ba3CaIr2O9
_symmetry_space_group_name_H-M  'C2/c'
_cell_length_a       5.94071
_cell_length_b       5.94071
_cell_length_c       14.67
_cell_angle_alpha    90.1773
_cell_angle_beta     90.1773
_cell_angle_gamma    119.992

_symmetry_Int_Tables_number  15
_chemical_formula_structural  Ba3CaIr2O9
_chemical_formula_sum  Ba6Ca2Ir4O8
_cell_volume  448.39857203488043
_cell_formula_units_Z  2
loop_
  _symmetry_equiv_pos_site_id
 _symmetry_equiv_pos_as_xyz
 1  'x, y, z'
loop_
 _atom_site_type_symbol
 _atom_site_label
 _atom_site_symmetry_multiplicity
 _atom_site_fract_x
 _atom_site_fract_y
 _atom_site_fract_z
 _atom_site_fract_occupancy
 Ba  Ba1  1  0.33460  0.66799  0.08825  1
 Ba  Ba2  1  0.33201  0.66540  0.41175  1
 Ba  Ba3  1  0.99983  0.00017  0.25000  1
 Ba  Ba4  1  0.00017  0.99983  0.75000  1
 Ba  Ba5  1  0.66799  0.33460  0.58825  1
 Ba  Ba6  1  0.66540  0.33201  0.91175  1
 Ca  Ca1  1  0.00000  0.00000  0.00000  1
 Ca  Ca2  1  -0.00000  -0.00000  0.50000  1
 Ir  Ir1  1  0.33067  0.66390  0.83679  1
 Ir  Ir2  1  0.66933  0.33610  0.16321  1
 Ir  Ir3  1  0.66390  0.33067  0.33679  1
 Ir  Ir4  1  0.33610  0.66933  0.66321  1
 O  O1  1  0.82702  0.64885  0.08997  1
 O  O2  1  0.64885  0.82702  0.58997  1
 O  O3  1  0.17298  0.35115  0.91003  1
 O  O4  1  0.81635  0.63781  0.41393  1
 O  O5  1  0.36219  0.18365  0.08607  1
 O  O6  1  0.18365  0.36219  0.58607  1
 O  O7  1  0.63781  0.81635  0.91393  1
 O  O8  1  0.81656  0.17313  0.41190  1
 O  O9  1  0.01881  0.50923  0.74813  1
 O  O10  1  0.18344  0.82687  0.58810  1
 O  O11  1  0.17313  0.81656  0.91190  1
 O  O12  1  0.49073  0.50927  0.75000  1
 O  O13  1  0.35115  0.17298  0.41003  1
 O  O14  1  0.50927  0.49073  0.25000  1
 O  O15  1  0.50923  0.01881  0.24813  1
 O  O16  1  0.98119  0.49077  0.25187  1
 O  O17  1  0.82687  0.18344  0.08810  1
 O  O18  1  0.49077  0.98119  0.75187  1
