CIF file written using JARVIS-Tools package.
data_TaNbC2
_symmetry_space_group_name_H-M  'R-3m'
_cell_length_a       5.51404
_cell_length_b       5.51404
_cell_length_c       5.51405
_cell_angle_alpha    33.523
_cell_angle_beta     33.523
_cell_angle_gamma    33.5229

_symmetry_Int_Tables_number  166
_chemical_formula_structural  TaNbC2
_chemical_formula_sum  TaNbC2
_cell_volume  45.54435035768526
_cell_formula_units_Z  1
loop_
  _symmetry_equiv_pos_site_id
 _symmetry_equiv_pos_as_xyz
 1  'x, y, z'
loop_
 _atom_site_type_symbol
 _atom_site_label
 _atom_site_symmetry_multiplicity
 _atom_site_fract_x
 _atom_site_fract_y
 _atom_site_fract_z
 _atom_site_fract_occupancy
 C  C1  1  0.25204  0.25204  0.25204  1
 C  C2  1  0.74796  0.74796  0.74796  1
 Nb  Nb1  1  0.50000  0.50000  0.50000  1
 Ta  Ta1  1  0.00000  0.00000  0.00000  1
