CIF file written using JARVIS-Tools package.
data_Al8Mo3
_symmetry_space_group_name_H-M  'C2/m'
_cell_length_a       3.66211
_cell_length_b       4.97641
_cell_length_c       10.1132
_cell_angle_alpha    99.907
_cell_angle_beta     90
_cell_angle_gamma    111.589

_symmetry_Int_Tables_number  12
_chemical_formula_structural  Al8Mo3
_chemical_formula_sum  Al8Mo3
_cell_volume  168.41636041041383
_cell_formula_units_Z  1
loop_
  _symmetry_equiv_pos_site_id
 _symmetry_equiv_pos_as_xyz
 1  'x, y, z'
loop_
 _atom_site_type_symbol
 _atom_site_label
 _atom_site_symmetry_multiplicity
 _atom_site_fract_x
 _atom_site_fract_y
 _atom_site_fract_z
 _atom_site_fract_occupancy
 Al  Al1  1  0.27236  0.54472  0.90989  1
 Al  Al2  1  0.72764  0.45528  0.09011  1
 Al  Al3  1  0.46036  0.92072  0.17911  1
 Al  Al4  1  0.53964  0.07928  0.82089  1
 Al  Al5  1  0.18668  0.37336  0.27826  1
 Al  Al6  1  0.81332  0.62664  0.72174  1
 Al  Al7  1  0.36870  0.73739  0.54152  1
 Al  Al8  1  0.63130  0.26261  0.45848  1
 Mo  Mo1  1  0.00000  0.00000  0.00000  1
 Mo  Mo2  1  0.09468  0.18937  0.65968  1
 Mo  Mo3  1  0.90532  0.81063  0.34032  1
