CIF file written using JARVIS-Tools package.
data_SF6
_symmetry_space_group_name_H-M  'P-1'
_cell_length_a       4.71369
_cell_length_b       7.93445
_cell_length_c       7.94001
_cell_angle_alpha    61.3684
_cell_angle_beta     85.1054
_cell_angle_gamma    85.1184

_symmetry_Int_Tables_number  2
_chemical_formula_structural  SF6
_chemical_formula_sum  S3F8
_cell_volume  259.36539143279794
_cell_formula_units_Z  3
loop_
  _symmetry_equiv_pos_site_id
 _symmetry_equiv_pos_as_xyz
 1  'x, y, z'
loop_
 _atom_site_type_symbol
 _atom_site_label
 _atom_site_symmetry_multiplicity
 _atom_site_fract_x
 _atom_site_fract_y
 _atom_site_fract_z
 _atom_site_fract_occupancy
 F  F1  1  0.59782  0.74583  0.46775  1
 F  F2  1  0.12358  0.92619  0.20581  1
 F  F3  1  0.87642  0.07381  0.79419  1
 F  F4  1  0.87616  0.79454  0.07136  1
 F  F5  1  0.12384  0.20546  0.92864  1
 F  F6  1  0.70913  0.06964  0.07067  1
 F  F7  1  0.29087  0.93036  0.92933  1
 F  F8  1  0.24026  0.59031  0.86857  1
 F  F9  1  0.75974  0.40969  0.13143  1
 F  F10  1  0.59799  0.46752  0.74627  1
 F  F11  1  0.40201  0.53248  0.25373  1
 F  F12  1  0.19195  0.58865  0.58940  1
 F  F13  1  0.80805  0.41135  0.41060  1
 F  F14  1  0.64634  0.74736  0.74699  1
 F  F15  1  0.35366  0.25264  0.25301  1
 F  F16  1  0.24010  0.86845  0.59022  1
 F  F17  1  0.75990  0.13155  0.40978  1
 F  F18  1  0.40218  0.25417  0.53225  1
 S  S1  1  0.58085  0.33197  0.33179  1
 S  S2  1  0.41915  0.66803  0.66821  1
 S  S3  1  0.00000  0.00000  0.00000  1
