CIF file written using JARVIS-Tools package.
data_Ca2B2O5
_symmetry_space_group_name_H-M  'P2_1/c'
_cell_length_a       7.19349
_cell_length_b       5.20458
_cell_length_c       11.5434
_cell_angle_alpha    90
_cell_angle_beta     93.5294
_cell_angle_gamma    90

_symmetry_Int_Tables_number  14
_chemical_formula_structural  Ca2B2O5
_chemical_formula_sum  Ca8B8O20
_cell_volume  431.35350136558156
_cell_formula_units_Z  4
loop_
  _symmetry_equiv_pos_site_id
 _symmetry_equiv_pos_as_xyz
 1  'x, y, z'
loop_
 _atom_site_type_symbol
 _atom_site_label
 _atom_site_symmetry_multiplicity
 _atom_site_fract_x
 _atom_site_fract_y
 _atom_site_fract_z
 _atom_site_fract_occupancy
 B  B1  1  0.33791  0.56190  0.91098  1
 B  B2  1  0.66209  0.06190  0.58902  1
 B  B3  1  0.66209  0.43810  0.08902  1
 B  B4  1  0.33791  0.93810  0.41098  1
 B  B5  1  0.84503  0.57697  0.90464  1
 B  B6  1  0.15497  0.07697  0.59536  1
 B  B7  1  0.15497  0.42303  0.09536  1
 B  B8  1  0.84503  0.92303  0.40464  1
 Ca  Ca1  1  0.38118  0.56331  0.63264  1
 Ca  Ca2  1  0.12435  0.39915  0.33471  1
 Ca  Ca3  1  0.12435  0.10085  0.83471  1
 Ca  Ca4  1  0.87565  0.60085  0.66529  1
 Ca  Ca5  1  0.38118  0.93669  0.13264  1
 Ca  Ca6  1  0.61882  0.43669  0.36736  1
 Ca  Ca7  1  0.61882  0.06331  0.86736  1
 Ca  Ca8  1  0.87565  0.89915  0.16529  1
 O  O1  1  0.64359  0.32051  0.57161  1
 O  O2  1  0.76968  0.90608  0.51497  1
 O  O3  1  0.14544  0.85462  0.65637  1
 O  O4  1  0.23032  0.09392  0.48503  1
 O  O5  1  0.76968  0.59392  0.01497  1
 O  O6  1  0.64359  0.17949  0.07161  1
 O  O7  1  0.35641  0.67949  0.42839  1
 O  O8  1  0.35641  0.82051  0.92839  1
 O  O9  1  0.23032  0.40608  0.98503  1
 O  O10  1  0.14544  0.64538  0.15637  1
 O  O11  1  0.59066  0.91875  0.67499  1
 O  O12  1  0.10615  0.19381  0.14184  1
 O  O13  1  0.89385  0.69381  0.35816  1
 O  O14  1  0.89385  0.80619  0.85816  1
 O  O15  1  0.10615  0.30619  0.64184  1
 O  O16  1  0.85456  0.14538  0.34363  1
 O  O17  1  0.59066  0.58125  0.17499  1
 O  O18  1  0.40934  0.41875  0.82501  1
 O  O19  1  0.40934  0.08125  0.32501  1
 O  O20  1  0.85456  0.35462  0.84363  1
