CIF file written using JARVIS-Tools package.
data_NaNb2S4
_symmetry_space_group_name_H-M  'P3m1'
_cell_length_a       3.40597
_cell_length_b       3.40596
_cell_length_c       13.6173
_cell_angle_alpha    90
_cell_angle_beta     90
_cell_angle_gamma    120

_symmetry_Int_Tables_number  156
_chemical_formula_structural  NaNb2S4
_chemical_formula_sum  NaNb2S4
_cell_volume  136.80525553407273
_cell_formula_units_Z  1
loop_
  _symmetry_equiv_pos_site_id
 _symmetry_equiv_pos_as_xyz
 1  'x, y, z'
loop_
 _atom_site_type_symbol
 _atom_site_label
 _atom_site_symmetry_multiplicity
 _atom_site_fract_x
 _atom_site_fract_y
 _atom_site_fract_z
 _atom_site_fract_occupancy
 Na  Na1  1  0.33333  0.66667  0.00096  1
 Nb  Nb1  1  0.00000  0.00000  0.26427  1
 Nb  Nb2  1  0.33333  0.66667  0.73540  1
 S  S1  1  0.66667  0.33333  0.14711  1
 S  S2  1  0.66667  0.33333  0.85277  1
 S  S3  1  0.66667  0.33333  0.62340  1
 S  S4  1  0.66667  0.33333  0.37629  1
