CIF file written using JARVIS-Tools package.
data_VOF
_symmetry_space_group_name_H-M  'Pmmn'
_cell_length_a       3.89426
_cell_length_b       2.87773
_cell_length_c       5.74056
_cell_angle_alpha    89.9911
_cell_angle_beta     89.9989
_cell_angle_gamma    90

_symmetry_Int_Tables_number  59
_chemical_formula_structural  VOF
_chemical_formula_sum  V2O2F2
_cell_volume  64.33230617792532
_cell_formula_units_Z  2
loop_
  _symmetry_equiv_pos_site_id
 _symmetry_equiv_pos_as_xyz
 1  'x, y, z'
loop_
 _atom_site_type_symbol
 _atom_site_label
 _atom_site_symmetry_multiplicity
 _atom_site_fract_x
 _atom_site_fract_y
 _atom_site_fract_z
 _atom_site_fract_occupancy
 F  F1  1  0.25000  0.74989  0.35426  1
 F  F2  1  0.75000  0.25011  0.64574  1
 O  O1  1  0.25000  0.75004  0.87200  1
 O  O2  1  0.75000  0.24996  0.12800  1
 V  V1  1  0.25000  0.24996  0.11934  1
 V  V2  1  0.75000  0.75004  0.88066  1
