CIF file written using JARVIS-Tools package.
data_NbMoS3
_symmetry_space_group_name_H-M  'P2_1/m'
_cell_length_a       3.28901
_cell_length_b       6.24029
_cell_length_c       8.75538
_cell_angle_alpha    76.4342
_cell_angle_beta     90
_cell_angle_gamma    90

_symmetry_Int_Tables_number  11
_chemical_formula_structural  NbMoS3
_chemical_formula_sum  Nb2Mo2S6
_cell_volume  174.68518218754468
_cell_formula_units_Z  2
loop_
  _symmetry_equiv_pos_site_id
 _symmetry_equiv_pos_as_xyz
 1  'x, y, z'
loop_
 _atom_site_type_symbol
 _atom_site_label
 _atom_site_symmetry_multiplicity
 _atom_site_fract_x
 _atom_site_fract_y
 _atom_site_fract_z
 _atom_site_fract_occupancy
 Mo  Mo1  1  0.25000  0.88739  0.62286  1
 Mo  Mo2  1  0.75000  0.11261  0.37714  1
 Nb  Nb1  1  0.25000  0.69159  0.00797  1
 Nb  Nb2  1  0.75000  0.30841  0.99203  1
 S  S1  1  0.25000  0.02813  0.16465  1
 S  S2  1  0.75000  0.97187  0.83535  1
 S  S3  1  0.25000  0.49283  0.79608  1
 S  S4  1  0.75000  0.50717  0.20392  1
 S  S5  1  0.25000  0.26967  0.51609  1
 S  S6  1  0.75000  0.73033  0.48391  1
