CIF file written using JARVIS-Tools package.
data_Mg2Bi3O8
_symmetry_space_group_name_H-M  'C2/m'
_cell_length_a       5.81712
_cell_length_b       6.96207
_cell_length_c       7.01645
_cell_angle_alpha    119.744
_cell_angle_beta     122.138
_cell_angle_gamma    90

_symmetry_Int_Tables_number  12
_chemical_formula_structural  Mg2Bi3O8
_chemical_formula_sum  Mg2Bi3O8
_cell_volume  194.99292446999104
_cell_formula_units_Z  1
loop_
  _symmetry_equiv_pos_site_id
 _symmetry_equiv_pos_as_xyz
 1  'x, y, z'
loop_
 _atom_site_type_symbol
 _atom_site_label
 _atom_site_symmetry_multiplicity
 _atom_site_fract_x
 _atom_site_fract_y
 _atom_site_fract_z
 _atom_site_fract_occupancy
 Bi  Bi1  1  0.50000  1.00000  0.00000  1
 Bi  Bi2  1  0.00000  0.73246  0.00000  1
 Bi  Bi3  1  -0.00000  0.26754  -0.00000  1
 Mg  Mg1  1  0.70520  0.67281  0.34562  1
 Mg  Mg2  1  0.29481  0.32719  0.65438  1
 O  O1  1  0.01043  0.37634  0.75269  1
 O  O2  1  0.98957  0.62366  0.24731  1
 O  O3  1  -0.01606  0.88058  0.76116  1
 O  O4  1  0.01606  0.11942  0.23884  1
 O  O5  1  0.46762  0.37470  0.22716  1
 O  O6  1  0.46762  0.85246  0.22716  1
 O  O7  1  0.53238  0.14754  0.77284  1
 O  O8  1  0.53238  0.62530  0.77284  1
