CIF file written using JARVIS-Tools package.
data_LiV3O4F2
_symmetry_space_group_name_H-M  'P1'
_cell_length_a       5.04601
_cell_length_b       5.52719
_cell_length_c       5.03675
_cell_angle_alpha    117.508
_cell_angle_beta     61.7317
_cell_angle_gamma    117.908

_symmetry_Int_Tables_number  1
_chemical_formula_structural  LiV3O4F2
_chemical_formula_sum  LiV3O4F2
_cell_volume  103.9968673808354
_cell_formula_units_Z  1
loop_
  _symmetry_equiv_pos_site_id
 _symmetry_equiv_pos_as_xyz
 1  'x, y, z'
loop_
 _atom_site_type_symbol
 _atom_site_label
 _atom_site_symmetry_multiplicity
 _atom_site_fract_x
 _atom_site_fract_y
 _atom_site_fract_z
 _atom_site_fract_occupancy
 F  F1  1  0.25271  0.74169  0.92766  1
 F  F2  1  0.92282  0.73522  0.55144  1
 Li  Li1  1  0.83463  0.60452  0.89339  1
 O  O1  1  0.07164  0.21056  0.40350  1
 O  O2  1  0.51457  0.75140  0.28094  1
 O  O3  1  0.76157  0.22563  0.05399  1
 O  O4  1  0.43294  0.24654  0.75491  1
 V  V1  1  0.16115  0.42657  0.14320  1
 V  V2  1  0.66819  0.99372  0.64483  1
 V  V3  1  0.37980  0.06414  0.34612  1
