CIF file written using JARVIS-Tools package.
data_SrNi5As3
_symmetry_space_group_name_H-M  'Cmcm'
_cell_length_a       3.78343
_cell_length_b       6.43259
_cell_length_c       11.9587
_cell_angle_alpha    90
_cell_angle_beta     90
_cell_angle_gamma    107.103

_symmetry_Int_Tables_number  63
_chemical_formula_structural  SrNi5As3
_chemical_formula_sum  Sr2Ni0As6
_cell_volume  278.1710964007343
_cell_formula_units_Z  2
loop_
  _symmetry_equiv_pos_site_id
 _symmetry_equiv_pos_as_xyz
 1  'x, y, z'
loop_
 _atom_site_type_symbol
 _atom_site_label
 _atom_site_symmetry_multiplicity
 _atom_site_fract_x
 _atom_site_fract_y
 _atom_site_fract_z
 _atom_site_fract_occupancy
 As  As1  1  0.62160  0.24321  0.54103  1
 As  As2  1  0.62160  0.24321  0.95897  1
 As  As3  1  0.37840  0.75679  0.04103  1
 As  As4  1  0.88748  0.77496  0.75000  1
 As  As5  1  0.37840  0.75679  0.45897  1
 As  As6  1  0.11252  0.22504  0.25000  1
 Ni  Ni1  1  0.19286  0.38572  0.06707  1
 Ni  Ni2  1  0.54756  0.09512  0.35519  1
 Ni  Ni3  1  0.19286  0.38572  0.43293  1
 Ni  Ni4  1  0.00000  0.00000  0.00000  1
 Ni  Ni5  1  0.45244  0.90488  0.64481  1
 Ni  Ni6  1  0.80714  0.61428  0.93293  1
 Ni  Ni7  1  0.54756  0.09512  0.14481  1
 Ni  Ni8  1  0.80714  0.61428  0.56707  1
 Ni  Ni9  1  0.45244  0.90488  0.85519  1
 Ni  Ni10  1  0.00000  0.00000  0.50000  1
 Sr  Sr1  1  0.83509  0.67018  0.25000  1
 Sr  Sr2  1  0.16491  0.32982  0.75000  1
