CIF file written using JARVIS-Tools package.
data_Ba2HoB2ClO6
_symmetry_space_group_name_H-M  'P2_1/m'
_cell_length_a       6.45076
_cell_length_b       5.33565
_cell_length_c       11.2982
_cell_angle_alpha    90
_cell_angle_beta     96.6102
_cell_angle_gamma    90

_symmetry_Int_Tables_number  11
_chemical_formula_structural  Ba2HoB2ClO6
_chemical_formula_sum  Ba4Ho2B4Cl2O2
_cell_volume  386.28663678818634
_cell_formula_units_Z  2
loop_
  _symmetry_equiv_pos_site_id
 _symmetry_equiv_pos_as_xyz
 1  'x, y, z'
loop_
 _atom_site_type_symbol
 _atom_site_label
 _atom_site_symmetry_multiplicity
 _atom_site_fract_x
 _atom_site_fract_y
 _atom_site_fract_z
 _atom_site_fract_occupancy
 B  B1  1  0.21034  0.25000  0.57238  1
 B  B2  1  0.78966  0.75000  0.42762  1
 B  B3  1  0.62300  0.75000  0.77309  1
 B  B4  1  0.37700  0.25000  0.22691  1
 Ba  Ba1  1  0.90836  0.25000  0.29485  1
 Ba  Ba2  1  0.65877  0.25000  0.92554  1
 Ba  Ba3  1  0.34123  0.75000  0.07446  1
 Ba  Ba4  1  0.09164  0.75000  0.70515  1
 Cl  Cl1  1  0.14900  0.25000  0.91280  1
 Cl  Cl2  1  0.85100  0.75000  0.08720  1
 Ho  Ho1  1  0.65233  0.25000  0.58607  1
 Ho  Ho2  1  0.34767  0.75000  0.41393  1
 O  O1  1  0.00675  0.25000  0.59288  1
 O  O2  1  0.70784  0.97222  0.73612  1
 O  O3  1  0.29216  0.47222  0.26388  1
 O  O4  1  0.67453  0.53076  0.43504  1
 O  O5  1  0.32547  0.46924  0.56496  1
 O  O6  1  0.47576  0.75000  0.85275  1
 O  O7  1  0.67453  0.96924  0.43504  1
 O  O8  1  0.32547  0.03076  0.56496  1
 O  O9  1  0.52424  0.25000  0.14725  1
 O  O10  1  0.99325  0.75000  0.40712  1
 O  O11  1  0.29216  0.02778  0.26388  1
 O  O12  1  0.70784  0.52778  0.73612  1
