CIF file written using JARVIS-Tools package.
data_Yb4Pt3Au
_symmetry_space_group_name_H-M  'Pm'
_cell_length_a       4.43175
_cell_length_b       5.56853
_cell_length_c       7.09924
_cell_angle_alpha    89.8358
_cell_angle_beta     90
_cell_angle_gamma    90

_symmetry_Int_Tables_number  6
_chemical_formula_structural  Yb4Pt3Au
_chemical_formula_sum  Yb4Pt3Au
_cell_volume  175.1968818251452
_cell_formula_units_Z  1
loop_
  _symmetry_equiv_pos_site_id
 _symmetry_equiv_pos_as_xyz
 1  'x, y, z'
loop_
 _atom_site_type_symbol
 _atom_site_label
 _atom_site_symmetry_multiplicity
 _atom_site_fract_x
 _atom_site_fract_y
 _atom_site_fract_z
 _atom_site_fract_occupancy
 Au  Au1  1  0.50000  0.16111  0.53828  1
 Pt  Pt1  1  0.50000  0.33763  0.03981  1
 Pt  Pt2  1  0.00000  0.84167  0.46231  1
 Pt  Pt3  1  0.00000  0.65787  0.95699  1
 Yb  Yb1  1  0.50000  0.64936  0.69177  1
 Yb  Yb2  1  0.50000  0.84916  0.18190  1
 Yb  Yb3  1  0.00000  0.35917  0.30468  1
 Yb  Yb4  1  0.00000  0.14403  0.82427  1
