CIF file written using JARVIS-Tools package.
data_AlGaCu2Se4
_symmetry_space_group_name_H-M  'I-4'
_cell_length_a       6.87026
_cell_length_b       6.87026
_cell_length_c       6.87027
_cell_angle_alpha    131.404
_cell_angle_beta     131.404
_cell_angle_gamma    71.1722

_symmetry_Int_Tables_number  82
_chemical_formula_structural  AlGaCu2Se4
_chemical_formula_sum  AlGaCu2Se4
_cell_volume  178.60992806821312
_cell_formula_units_Z  1
loop_
  _symmetry_equiv_pos_site_id
 _symmetry_equiv_pos_as_xyz
 1  'x, y, z'
loop_
 _atom_site_type_symbol
 _atom_site_label
 _atom_site_symmetry_multiplicity
 _atom_site_fract_x
 _atom_site_fract_y
 _atom_site_fract_z
 _atom_site_fract_occupancy
 Al  Al1  1  0.50000  0.50000  -0.00000  1
 Cu  Cu1  1  0.25000  0.75000  0.50000  1
 Cu  Cu2  1  0.00000  0.00000  0.00000  1
 Ga  Ga1  1  0.75000  0.25000  0.50000  1
 Se  Se1  1  0.62359  0.62807  0.49892  1
 Se  Se2  1  0.12915  0.12467  0.50108  1
 Se  Se3  1  0.87533  0.37641  0.00448  1
 Se  Se4  1  0.37193  0.87085  0.99552  1
