CIF file written using JARVIS-Tools package.
data_Tm3In4Co2
_symmetry_space_group_name_H-M  'P-6'
_cell_length_a       7.79757
_cell_length_b       7.79757
_cell_length_c       3.58134
_cell_angle_alpha    90
_cell_angle_beta     90
_cell_angle_gamma    120

_symmetry_Int_Tables_number  174
_chemical_formula_structural  Tm3In4Co2
_chemical_formula_sum  Tm3In4Co2
_cell_volume  188.57971075150937
_cell_formula_units_Z  1
loop_
  _symmetry_equiv_pos_site_id
 _symmetry_equiv_pos_as_xyz
 1  'x, y, z'
loop_
 _atom_site_type_symbol
 _atom_site_label
 _atom_site_symmetry_multiplicity
 _atom_site_fract_x
 _atom_site_fract_y
 _atom_site_fract_z
 _atom_site_fract_occupancy
 Co  Co1  1  0.33333  0.66667  0.50000  1
 Co  Co2  1  0.00000  0.00000  0.00000  1
 In  In1  1  0.07879  0.41472  0.00000  1
 In  In2  1  0.58528  0.66408  0.00000  1
 In  In3  1  0.33592  0.92121  0.00000  1
 In  In4  1  0.66667  0.33333  0.00000  1
 Tm  Tm1  1  0.28867  0.24447  0.50000  1
 Tm  Tm2  1  0.75553  0.04419  0.50000  1
 Tm  Tm3  1  0.95581  0.71133  0.50000  1
