CIF file written using JARVIS-Tools package.
data_MgCu2O4
_symmetry_space_group_name_H-M  'Imma'
_cell_length_a       5.87738
_cell_length_b       5.87738
_cell_length_c       5.91951
_cell_angle_alpha    59.7625
_cell_angle_beta     59.7626
_cell_angle_gamma    60.1778

_symmetry_Int_Tables_number  74
_chemical_formula_structural  MgCu2O4
_chemical_formula_sum  Mg2Cu4O8
_cell_volume  144.25986256336685
_cell_formula_units_Z  2
loop_
  _symmetry_equiv_pos_site_id
 _symmetry_equiv_pos_as_xyz
 1  'x, y, z'
loop_
 _atom_site_type_symbol
 _atom_site_label
 _atom_site_symmetry_multiplicity
 _atom_site_fract_x
 _atom_site_fract_y
 _atom_site_fract_z
 _atom_site_fract_occupancy
 Cu  Cu1  1  0.98877  0.98877  0.01123  1
 Cu  Cu2  1  0.26123  0.26123  0.23877  1
 Cu  Cu3  1  0.62500  0.62500  0.12500  1
 Cu  Cu4  1  0.62500  0.62500  0.62500  1
 Mg  Mg1  1  0.12500  0.62500  0.62500  1
 Mg  Mg2  1  0.62500  0.12500  0.62500  1
 O  O1  1  0.39431  0.39431  0.37041  1
 O  O2  1  0.39128  0.85936  0.37468  1
 O  O3  1  0.39431  0.39431  0.84097  1
 O  O4  1  0.85936  0.39128  0.37468  1
 O  O5  1  0.39064  0.85872  0.87532  1
 O  O6  1  0.85872  0.39064  0.87532  1
 O  O7  1  0.85569  0.85569  0.40903  1
 O  O8  1  0.85569  0.85569  0.87959  1
