CIF file written using JARVIS-Tools package.
data_VB2Ru
_symmetry_space_group_name_H-M  'Pmc2_1'
_cell_length_a       2.92731
_cell_length_b       4.33691
_cell_length_c       5.98365
_cell_angle_alpha    90
_cell_angle_beta     90
_cell_angle_gamma    90

_symmetry_Int_Tables_number  26
_chemical_formula_structural  VB2Ru
_chemical_formula_sum  V2B4Ru2
_cell_volume  75.96531402184009
_cell_formula_units_Z  2
loop_
  _symmetry_equiv_pos_site_id
 _symmetry_equiv_pos_as_xyz
 1  'x, y, z'
loop_
 _atom_site_type_symbol
 _atom_site_label
 _atom_site_symmetry_multiplicity
 _atom_site_fract_x
 _atom_site_fract_y
 _atom_site_fract_z
 _atom_site_fract_occupancy
 B  B1  1  0.00000  0.64476  0.53245  1
 B  B2  1  0.00000  0.35524  0.03245  1
 B  B3  1  0.50000  0.85221  0.47118  1
 B  B4  1  0.50000  0.14779  0.97118  1
 Ru  Ru1  1  0.00000  0.14355  0.67810  1
 Ru  Ru2  1  0.00000  0.85645  0.17810  1
 V  V1  1  0.50000  0.36720  0.31827  1
 V  V2  1  0.50000  0.63280  0.81827  1
