CIF file written using JARVIS-Tools package.
data_Fe2NiP
_symmetry_space_group_name_H-M  'I-4'
_cell_length_a       4.37712
_cell_length_b       6.73347
_cell_length_c       6.73347
_cell_angle_alpha    83.9358
_cell_angle_beta     71.0328
_cell_angle_gamma    71.0327

_symmetry_Int_Tables_number  82
_chemical_formula_structural  Fe2NiP
_chemical_formula_sum  Fe8Ni4P4
_cell_volume  177.49129958965958
_cell_formula_units_Z  4
loop_
  _symmetry_equiv_pos_site_id
 _symmetry_equiv_pos_as_xyz
 1  'x, y, z'
loop_
 _atom_site_type_symbol
 _atom_site_label
 _atom_site_symmetry_multiplicity
 _atom_site_fract_x
 _atom_site_fract_y
 _atom_site_fract_z
 _atom_site_fract_occupancy
 Fe  Fe1  1  0.87698  0.81628  0.97254  1
 Fe  Fe2  1  0.34564  0.66783  0.60918  1
 Fe  Fe3  1  0.30674  0.02746  0.81628  1
 Fe  Fe4  1  0.15048  0.97254  0.18372  1
 Fe  Fe5  1  0.62265  0.33217  0.39082  1
 Fe  Fe6  1  0.66580  0.18372  0.02746  1
 Fe  Fe7  1  0.98653  0.39082  0.66783  1
 Fe  Fe8  1  0.04518  0.60918  0.33217  1
 Ni  Ni1  1  0.92369  0.04421  0.60683  1
 Ni  Ni2  1  0.03209  0.39317  0.04421  1
 Ni  Ni3  1  0.46948  0.60683  0.95579  1
 Ni  Ni4  1  0.57474  0.95579  0.39317  1
 P  P1  1  0.19572  0.24850  0.33434  1
 P  P2  1  0.46994  0.33434  0.75150  1
 P  P3  1  0.77856  0.75150  0.66566  1
 P  P4  1  0.55578  0.66566  0.24850  1
