CIF file written using JARVIS-Tools package.
data_NbMoSe3
_symmetry_space_group_name_H-M  'P2_1/m'
_cell_length_a       3.42082
_cell_length_b       6.59088
_cell_length_c       9.19176
_cell_angle_alpha    75.4077
_cell_angle_beta     90
_cell_angle_gamma    90

_symmetry_Int_Tables_number  11
_chemical_formula_structural  NbMoSe3
_chemical_formula_sum  Nb2Mo2Se6
_cell_volume  200.5547130912968
_cell_formula_units_Z  2
loop_
  _symmetry_equiv_pos_site_id
 _symmetry_equiv_pos_as_xyz
 1  'x, y, z'
loop_
 _atom_site_type_symbol
 _atom_site_label
 _atom_site_symmetry_multiplicity
 _atom_site_fract_x
 _atom_site_fract_y
 _atom_site_fract_z
 _atom_site_fract_occupancy
 Mo  Mo1  1  0.25000  0.89150  0.62138  1
 Mo  Mo2  1  0.75000  0.10850  0.37862  1
 Nb  Nb1  1  0.25000  0.68215  0.00265  1
 Nb  Nb2  1  0.75000  0.31785  0.99735  1
 Se  Se1  1  0.25000  0.02639  0.16540  1
 Se  Se2  1  0.75000  0.97361  0.83460  1
 Se  Se3  1  0.25000  0.48600  0.79186  1
 Se  Se4  1  0.75000  0.51400  0.20814  1
 Se  Se5  1  0.25000  0.27393  0.51420  1
 Se  Se6  1  0.75000  0.72607  0.48580  1
