CIF file written using JARVIS-Tools package.
data_HgAu2F8
_symmetry_space_group_name_H-M  'P4/mcc'
_cell_length_a       5.76836
_cell_length_b       5.76836
_cell_length_c       10.5379
_cell_angle_alpha    90
_cell_angle_beta     90
_cell_angle_gamma    90

_symmetry_Int_Tables_number  124
_chemical_formula_structural  HgAu2F8
_chemical_formula_sum  Hg2Au4F6
_cell_volume  350.63753073412585
_cell_formula_units_Z  2
loop_
  _symmetry_equiv_pos_site_id
 _symmetry_equiv_pos_as_xyz
 1  'x, y, z'
loop_
 _atom_site_type_symbol
 _atom_site_label
 _atom_site_symmetry_multiplicity
 _atom_site_fract_x
 _atom_site_fract_y
 _atom_site_fract_z
 _atom_site_fract_occupancy
 Au  Au1  1  0.50000  0.00000  0.50000  1
 Au  Au2  1  0.00000  0.50000  0.50000  1
 Au  Au3  1  0.50000  0.00000  0.00000  1
 Au  Au4  1  0.00000  0.50000  0.00000  1
 F  F1  1  0.83856  0.31723  0.37049  1
 F  F2  1  0.68277  0.83856  0.62951  1
 F  F3  1  0.31723  0.16144  0.62951  1
 F  F4  1  0.83856  0.68277  0.87049  1
 F  F5  1  0.83856  0.31723  0.62951  1
 F  F6  1  0.16144  0.31723  0.87049  1
 F  F7  1  0.31723  0.83856  0.87049  1
 F  F8  1  0.16144  0.68277  0.62951  1
 F  F9  1  0.68277  0.16144  0.87049  1
 F  F10  1  0.68277  0.16144  0.12951  1
 F  F11  1  0.83856  0.68277  0.12951  1
 F  F12  1  0.16144  0.68277  0.37049  1
 F  F13  1  0.16144  0.31723  0.12951  1
 F  F14  1  0.68277  0.83856  0.37049  1
 F  F15  1  0.31723  0.16144  0.37049  1
 F  F16  1  0.31723  0.83856  0.12951  1
 Hg  Hg1  1  0.00000  0.00000  0.25000  1
 Hg  Hg2  1  0.00000  0.00000  0.75000  1
