CIF file written using JARVIS-Tools package.
data_LiCoSiO4
_symmetry_space_group_name_H-M  'C222_1'
_cell_length_a       5.13884
_cell_length_b       6.47405
_cell_length_c       5.14063
_cell_angle_alpha    90
_cell_angle_beta     89.3454
_cell_angle_gamma    90

_symmetry_Int_Tables_number  20
_chemical_formula_structural  LiCoSiO4
_chemical_formula_sum  Li2Co2Si2O8
_cell_volume  171.0132096299729
_cell_formula_units_Z  2
loop_
  _symmetry_equiv_pos_site_id
 _symmetry_equiv_pos_as_xyz
 1  'x, y, z'
loop_
 _atom_site_type_symbol
 _atom_site_label
 _atom_site_symmetry_multiplicity
 _atom_site_fract_x
 _atom_site_fract_y
 _atom_site_fract_z
 _atom_site_fract_occupancy
 Co  Co1  1  0.81899  0.75134  0.81885  1
 Co  Co2  1  0.18101  0.25134  0.18115  1
 Li  Li1  1  0.81095  0.25143  0.81077  1
 Li  Li2  1  0.18905  0.75143  0.18923  1
 O  O1  1  0.19572  0.20817  0.81921  1
 O  O2  1  0.18107  0.79463  0.80462  1
 O  O3  1  0.63607  0.99080  0.73529  1
 O  O4  1  0.73566  0.51198  0.63569  1
 O  O5  1  0.26434  0.01198  0.36431  1
 O  O6  1  0.36393  0.49080  0.26471  1
 O  O7  1  0.81893  0.29463  0.19538  1
 O  O8  1  0.80428  0.70817  0.18079  1
 Si  Si1  1  0.32107  0.00139  0.67910  1
 Si  Si2  1  0.67893  0.50139  0.32090  1
