CIF file written using JARVIS-Tools package.
data_Sb2Te2Se
_symmetry_space_group_name_H-M  'R3m'
_cell_length_a       10.2566
_cell_length_b       10.2566
_cell_length_c       10.2566
_cell_angle_alpha    24.0204
_cell_angle_beta     24.0204
_cell_angle_gamma    24.0204

_symmetry_Int_Tables_number  160
_chemical_formula_structural  Sb2Te2Se
_chemical_formula_sum  Sb2Te2Se
_cell_volume  157.0966598438701
_cell_formula_units_Z  1
loop_
  _symmetry_equiv_pos_site_id
 _symmetry_equiv_pos_as_xyz
 1  'x, y, z'
loop_
 _atom_site_type_symbol
 _atom_site_label
 _atom_site_symmetry_multiplicity
 _atom_site_fract_x
 _atom_site_fract_y
 _atom_site_fract_z
 _atom_site_fract_occupancy
 Sb  Sb1  1  0.40029  0.40029  0.40029  1
 Sb  Sb2  1  0.59679  0.59679  0.59679  1
 Se  Se1  1  0.21370  0.21370  0.21370  1
 Te  Te1  1  0.79211  0.79211  0.79211  1
 Te  Te2  1  0.99712  0.99712  0.99712  1
