data_image0
_chemical_formula_structural       B2La3N4
_chemical_formula_sum              "B2 La3 N4"
_cell_length_a       3.6155
_cell_length_b       6.39183
_cell_length_c       6.59768
_cell_angle_alpha    118.973
_cell_angle_beta     105.902
_cell_angle_gamma    90

_space_group_name_H-M_alt    "P 1"
_space_group_IT_number       1

loop_
  _space_group_symop_operation_xyz
  'x, y, z'

loop_
  _atom_site_type_symbol
  _atom_site_label
  _atom_site_symmetry_multiplicity
  _atom_site_fract_x
  _atom_site_fract_y
  _atom_site_fract_z
  _atom_site_occupancy
  B   B1        1.0  0.50000  0.35800  0.00000  1.0000
  B   B2        1.0  0.50000  0.64200  0.00000  1.0000
  La  La1       1.0  0.00000  0.00000  0.00000  1.0000
  La  La2       1.0  0.20100  0.70100  0.40100  1.0000
  La  La3       1.0  0.79900  0.29900  0.59900  1.0000
  N   N1        1.0  0.61800  0.36300  0.23600  1.0000
  N   N2        1.0  0.61800  0.87300  0.23600  1.0000
  N   N3        1.0  0.38200  0.12700  0.76400  1.0000
  N   N4        1.0  0.38200  0.63700  0.76400  1.0000
