CIF file written using JARVIS-Tools package.
data_K5Br4Cl
_symmetry_space_group_name_H-M  'I4/m'
_cell_length_a       7.96766
_cell_length_b       7.96766
_cell_length_c       7.96766
_cell_angle_alpha    99.612
_cell_angle_beta     99.612
_cell_angle_gamma    131.763

_symmetry_Int_Tables_number  87
_chemical_formula_structural  K5Br4Cl
_chemical_formula_sum  K5Br4Cl
_cell_volume  344.3542539037998
_cell_formula_units_Z  1
loop_
  _symmetry_equiv_pos_site_id
 _symmetry_equiv_pos_as_xyz
 1  'x, y, z'
loop_
 _atom_site_type_symbol
 _atom_site_label
 _atom_site_symmetry_multiplicity
 _atom_site_fract_x
 _atom_site_fract_y
 _atom_site_fract_z
 _atom_site_fract_occupancy
 Br  Br1  1  0.90256  0.29999  0.20255  1
 Br  Br2  1  0.29999  0.09744  0.39744  1
 Br  Br3  1  0.70001  0.90256  0.60256  1
 Br  Br4  1  0.09744  0.70001  0.79745  1
 Cl  Cl1  1  0.50000  0.50000  -0.00000  1
 K  K1  1  0.59703  0.20797  0.80501  1
 K  K2  1  0.40297  0.79203  0.19499  1
 K  K3  1  0.79203  0.59703  0.38906  1
 K  K4  1  0.00000  0.00000  0.00000  1
 K  K5  1  0.20797  0.40297  0.61094  1
