CIF file written using JARVIS-Tools package.
data_CeAlCu2Ni2
_symmetry_space_group_name_H-M  'Amm2'
_cell_length_a       5.18858
_cell_length_b       5.18858
_cell_length_c       3.9047
_cell_angle_alpha    90
_cell_angle_beta     90
_cell_angle_gamma    120.014

_symmetry_Int_Tables_number  38
_chemical_formula_structural  CeAlCu2Ni2
_chemical_formula_sum  CeAlCu2Ni2
_cell_volume  91.02400608694896
_cell_formula_units_Z  1
loop_
  _symmetry_equiv_pos_site_id
 _symmetry_equiv_pos_as_xyz
 1  'x, y, z'
loop_
 _atom_site_type_symbol
 _atom_site_label
 _atom_site_symmetry_multiplicity
 _atom_site_fract_x
 _atom_site_fract_y
 _atom_site_fract_z
 _atom_site_fract_occupancy
 Al  Al1  1  0.67280  0.32720  0.00000  1
 Ce  Ce1  1  0.00356  0.99644  0.00000  1
 Cu  Cu1  1  0.33226  0.66774  0.00000  1
 Cu  Cu2  1  0.49713  0.50287  0.50000  1
 Ni  Ni1  1  0.99812  0.50496  0.50000  1
 Ni  Ni2  1  0.49504  0.00188  0.50000  1
