CIF file written using JARVIS-Tools package.
data_YbGa3Cu
_symmetry_space_group_name_H-M  'I-4m2'
_cell_length_a       6.09305
_cell_length_b       6.09305
_cell_length_c       6.09305
_cell_angle_alpha    140.566
_cell_angle_beta     140.566
_cell_angle_gamma    56.9953

_symmetry_Int_Tables_number  119
_chemical_formula_structural  YbGa3Cu
_chemical_formula_sum  YbGa3Cu
_cell_volume  90.51109719959526
_cell_formula_units_Z  1
loop_
  _symmetry_equiv_pos_site_id
 _symmetry_equiv_pos_as_xyz
 1  'x, y, z'
loop_
 _atom_site_type_symbol
 _atom_site_label
 _atom_site_symmetry_multiplicity
 _atom_site_fract_x
 _atom_site_fract_y
 _atom_site_fract_z
 _atom_site_fract_occupancy
 Cu  Cu1  1  0.25000  0.75000  0.50000  1
 Ga  Ga1  1  0.61445  0.61445  -0.00000  1
 Ga  Ga2  1  0.38555  0.38555  -0.00000  1
 Ga  Ga3  1  0.75000  0.25000  0.50000  1
 Yb  Yb1  1  0.00000  0.00000  0.00000  1
