CIF file written using JARVIS-Tools package.
data_Ti3Se4
_symmetry_space_group_name_H-M  'P6_3/m'
_cell_length_a       9.89548
_cell_length_b       9.89548
_cell_length_c       3.58073
_cell_angle_alpha    90
_cell_angle_beta     90
_cell_angle_gamma    120

_symmetry_Int_Tables_number  176
_chemical_formula_structural  Ti3Se4
_chemical_formula_sum  Ti6Se8
_cell_volume  303.651919454064
_cell_formula_units_Z  2
loop_
  _symmetry_equiv_pos_site_id
 _symmetry_equiv_pos_as_xyz
 1  'x, y, z'
loop_
 _atom_site_type_symbol
 _atom_site_label
 _atom_site_symmetry_multiplicity
 _atom_site_fract_x
 _atom_site_fract_y
 _atom_site_fract_z
 _atom_site_fract_occupancy
 Se  Se1  1  0.04969  0.69961  0.75000  1
 Se  Se2  1  0.35008  0.04969  0.25000  1
 Se  Se3  1  0.69961  0.64992  0.25000  1
 Se  Se4  1  0.30039  0.35008  0.75000  1
 Se  Se5  1  0.64992  0.95031  0.75000  1
 Se  Se6  1  0.95031  0.30039  0.25000  1
 Se  Se7  1  0.33333  0.66667  0.25000  1
 Se  Se8  1  0.66667  0.33333  0.75000  1
 Ti  Ti1  1  0.35915  0.87048  0.75000  1
 Ti  Ti2  1  0.48867  0.35915  0.25000  1
 Ti  Ti3  1  0.87048  0.51133  0.25000  1
 Ti  Ti4  1  0.12952  0.48867  0.75000  1
 Ti  Ti5  1  0.51133  0.64085  0.75000  1
 Ti  Ti6  1  0.64085  0.12952  0.25000  1
