CIF file written using JARVIS-Tools package.
data_Na2Cr7O14
_symmetry_space_group_name_H-M  'R-3m'
_cell_length_a       5.6582
_cell_length_b       5.65844
_cell_length_c       9.73737
_cell_angle_alpha    73.1628
_cell_angle_beta     73.125
_cell_angle_gamma    60.003

_symmetry_Int_Tables_number  166
_chemical_formula_structural  Na2Cr7O14
_chemical_formula_sum  Na2Cr7O4
_cell_volume  254.41268665759057
_cell_formula_units_Z  1
loop_
  _symmetry_equiv_pos_site_id
 _symmetry_equiv_pos_as_xyz
 1  'x, y, z'
loop_
 _atom_site_type_symbol
 _atom_site_label
 _atom_site_symmetry_multiplicity
 _atom_site_fract_x
 _atom_site_fract_y
 _atom_site_fract_z
 _atom_site_fract_occupancy
 Cr  Cr1  1  -0.00001  0.50000  0.50000  1
 Cr  Cr2  1  0.06018  0.06092  0.81899  1
 Cr  Cr3  1  0.49999  -0.00000  0.50000  1
 Cr  Cr4  1  -0.00001  -0.00000  0.50000  1
 Cr  Cr5  1  0.57498  0.57452  0.27533  1
 Cr  Cr6  1  0.42501  0.42548  0.72467  1
 Cr  Cr7  1  0.93981  0.93908  0.18101  1
 Na  Na1  1  0.30487  0.30507  0.08531  1
 Na  Na2  1  0.69515  0.69494  0.91468  1
 O  O1  1  0.12748  0.12776  0.61739  1
 O  O2  1  0.63234  0.63259  0.61306  1
 O  O3  1  0.36765  0.36741  0.38694  1
 O  O4  1  0.78028  0.77946  0.14195  1
 O  O5  1  0.21971  0.70292  0.85793  1
 O  O6  1  0.36766  0.87764  0.38693  1
 O  O7  1  0.78027  0.29708  0.14207  1
 O  O8  1  0.12210  0.63258  0.61306  1
 O  O9  1  0.29795  0.77939  0.14198  1
 O  O10  1  0.70204  0.22062  0.85801  1
 O  O11  1  0.21971  0.22054  0.85805  1
 O  O12  1  0.63233  0.12236  0.61307  1
 O  O13  1  0.87789  0.36742  0.38694  1
 O  O14  1  0.87251  0.87224  0.38261  1
