CIF file written using JARVIS-Tools package.
data_LiAgF4
_symmetry_space_group_name_H-M  'C2/m'
_cell_length_a       3.52351
_cell_length_b       4.63265
_cell_length_c       4.63277
_cell_angle_alpha    87.1953
_cell_angle_beta     84.0926
_cell_angle_gamma    84.1309

_symmetry_Int_Tables_number  12
_chemical_formula_structural  LiAgF4
_chemical_formula_sum  LiAgF4
_cell_volume  74.76926370606411
_cell_formula_units_Z  1
loop_
  _symmetry_equiv_pos_site_id
 _symmetry_equiv_pos_as_xyz
 1  'x, y, z'
loop_
 _atom_site_type_symbol
 _atom_site_label
 _atom_site_symmetry_multiplicity
 _atom_site_fract_x
 _atom_site_fract_y
 _atom_site_fract_z
 _atom_site_fract_occupancy
 Ag  Ag1  1  0.99893  0.99775  0.49639  1
 F  F1  1  0.99897  0.69243  0.80105  1
 F  F2  1  0.44218  0.78801  0.28598  1
 F  F3  1  0.55566  0.20746  0.70681  1
 F  F4  1  -0.00107  0.30308  0.19175  1
 Li  Li1  1  0.49942  0.49775  0.99636  1
