CIF file written using JARVIS-Tools package.
data_LuCoO3
_symmetry_space_group_name_H-M  'Pnma'
_cell_length_a       5.02969
_cell_length_b       5.46828
_cell_length_c       7.25866
_cell_angle_alpha    90
_cell_angle_beta     90
_cell_angle_gamma    90

_symmetry_Int_Tables_number  62
_chemical_formula_structural  LuCoO3
_chemical_formula_sum  Lu4Co4O2
_cell_volume  199.64049485881793
_cell_formula_units_Z  4
loop_
  _symmetry_equiv_pos_site_id
 _symmetry_equiv_pos_as_xyz
 1  'x, y, z'
loop_
 _atom_site_type_symbol
 _atom_site_label
 _atom_site_symmetry_multiplicity
 _atom_site_fract_x
 _atom_site_fract_y
 _atom_site_fract_z
 _atom_site_fract_occupancy
 Co  Co1  1  0.00000  0.50000  0.50000  1
 Co  Co2  1  0.00000  0.50000  0.00000  1
 Co  Co3  1  0.50000  0.00000  0.00000  1
 Co  Co4  1  0.50000  0.00000  0.50000  1
 Lu  Lu1  1  0.52585  0.58288  0.25000  1
 Lu  Lu2  1  0.97415  0.08288  0.25000  1
 Lu  Lu3  1  0.47415  0.41712  0.75000  1
 Lu  Lu4  1  0.02585  0.91712  0.75000  1
 O  O1  1  0.31598  0.69384  0.55596  1
 O  O2  1  0.38357  0.96257  0.25000  1
 O  O3  1  0.81598  0.80616  0.05596  1
 O  O4  1  0.31598  0.69384  0.94404  1
 O  O5  1  0.88357  0.53743  0.75000  1
 O  O6  1  0.68402  0.30616  0.44404  1
 O  O7  1  0.68402  0.30616  0.05596  1
 O  O8  1  0.18402  0.19384  0.55596  1
 O  O9  1  0.81598  0.80616  0.44404  1
 O  O10  1  0.61643  0.03743  0.75000  1
 O  O11  1  0.11643  0.46257  0.25000  1
 O  O12  1  0.18402  0.19384  0.94404  1
