CIF file written using JARVIS-Tools package.
data_Rb2Al2B2O7
_symmetry_space_group_name_H-M  'P2_1/c'
_cell_length_a       8.86371
_cell_length_b       7.62769
_cell_length_c       11.8263
_cell_angle_alpha    90
_cell_angle_beta     102.886
_cell_angle_gamma    90

_symmetry_Int_Tables_number  14
_chemical_formula_structural  Rb2Al2B2O7
_chemical_formula_sum  Rb8Al8B8O28
_cell_volume  779.4366033691987
_cell_formula_units_Z  4
loop_
  _symmetry_equiv_pos_site_id
 _symmetry_equiv_pos_as_xyz
 1  'x, y, z'
loop_
 _atom_site_type_symbol
 _atom_site_label
 _atom_site_symmetry_multiplicity
 _atom_site_fract_x
 _atom_site_fract_y
 _atom_site_fract_z
 _atom_site_fract_occupancy
 Al  Al1  1  0.18506  0.41513  0.63543  1
 Al  Al2  1  0.81494  0.58487  0.36457  1
 Al  Al3  1  0.34353  0.87436  0.37897  1
 Al  Al4  1  0.65647  0.12564  0.62103  1
 Al  Al5  1  0.81494  0.91513  0.86457  1
 Al  Al6  1  0.18506  0.08487  0.13543  1
 Al  Al7  1  0.65647  0.37436  0.12103  1
 Al  Al8  1  0.34353  0.62564  0.87897  1
 B  B1  1  0.15868  0.58227  0.40874  1
 B  B2  1  0.84132  0.08227  0.09126  1
 B  B3  1  0.68612  0.89057  0.43468  1
 B  B4  1  0.15868  0.91773  0.90874  1
 B  B5  1  0.68612  0.60943  0.93468  1
 B  B6  1  0.31388  0.39057  0.06532  1
 B  B7  1  0.31388  0.10943  0.56532  1
 B  B8  1  0.84132  0.41773  0.59126  1
 O  O1  1  0.99187  0.46640  0.63899  1
 O  O2  1  0.19540  0.31355  0.10700  1
 O  O3  1  0.76512  0.03027  0.98199  1
 O  O4  1  0.76512  0.46973  0.48199  1
 O  O5  1  0.45833  0.31436  0.08813  1
 O  O6  1  0.80460  0.81355  0.39300  1
 O  O7  1  0.76125  0.17746  0.15840  1
 O  O8  1  0.28030  0.54154  0.00077  1
 O  O9  1  0.54167  0.81436  0.41187  1
 O  O10  1  0.00813  0.53360  0.36101  1
 O  O11  1  0.71970  0.45846  -0.00077  1
 O  O12  1  0.30937  0.02469  0.26528  1
 O  O13  1  0.28030  0.95846  0.50077  1
 O  O14  1  0.30937  0.47531  0.76528  1
 O  O15  1  0.23488  0.53027  0.51801  1
 O  O16  1  0.69063  0.52469  0.23472  1
 O  O17  1  0.00813  0.96640  0.86101  1
 O  O18  1  0.69063  0.97531  0.73472  1
 O  O19  1  0.19540  0.18645  0.60700  1
 O  O20  1  0.45833  0.18564  0.58813  1
 O  O21  1  0.54167  0.68564  0.91187  1
 O  O22  1  0.23875  0.82254  0.84160  1
 O  O23  1  0.80460  0.68645  0.89300  1
 O  O24  1  0.76125  0.32254  0.65840  1
 O  O25  1  0.71970  0.04154  0.49923  1
 O  O26  1  0.99187  0.03360  0.13899  1
 O  O27  1  0.23875  0.67746  0.34160  1
 O  O28  1  0.23488  0.96973  0.01801  1
 Rb  Rb1  1  0.45580  0.13539  0.85512  1
 Rb  Rb2  1  0.97061  0.14295  0.37470  1
 Rb  Rb3  1  0.02939  0.64295  0.12530  1
 Rb  Rb4  1  0.54420  0.63539  0.64488  1
 Rb  Rb5  1  0.45580  0.36461  0.35512  1
 Rb  Rb6  1  0.54420  0.86461  0.14488  1
 Rb  Rb7  1  0.02939  0.85705  0.62530  1
 Rb  Rb8  1  0.97061  0.35705  0.87470  1
