CIF file written using JARVIS-Tools package.
data_Pu
_symmetry_space_group_name_H-M  'P6_3/m'
_cell_length_a       6.11815
_cell_length_b       6.11815
_cell_length_c       5.22249
_cell_angle_alpha    90
_cell_angle_beta     90
_cell_angle_gamma    120

_symmetry_Int_Tables_number  176
_chemical_formula_structural  Pu
_chemical_formula_sum  Pu8
_cell_volume  169.2965931430851
_cell_formula_units_Z  8
loop_
  _symmetry_equiv_pos_site_id
 _symmetry_equiv_pos_as_xyz
 1  'x, y, z'
loop_
 _atom_site_type_symbol
 _atom_site_label
 _atom_site_symmetry_multiplicity
 _atom_site_fract_x
 _atom_site_fract_y
 _atom_site_fract_z
 _atom_site_fract_occupancy
 Pu  Pu1  1  0.73916  0.65830  0.75000  1
 Pu  Pu2  1  0.34170  0.08085  0.75000  1
 Pu  Pu3  1  0.08085  0.73916  0.25000  1
 Pu  Pu4  1  0.65830  0.91915  0.25000  1
 Pu  Pu5  1  0.91915  0.26084  0.75000  1
 Pu  Pu6  1  0.66667  0.33333  0.25000  1
 Pu  Pu7  1  0.26084  0.34170  0.25000  1
 Pu  Pu8  1  0.33333  0.66667  0.75000  1
