CIF file written using JARVIS-Tools package.
data_DySiRu2C
_symmetry_space_group_name_H-M  'Cmcm'
_cell_length_a       3.8025
_cell_length_b       5.89429
_cell_length_c       7.14327
_cell_angle_alpha    90
_cell_angle_beta     90
_cell_angle_gamma    108.818

_symmetry_Int_Tables_number  63
_chemical_formula_structural  DySiRu2C
_chemical_formula_sum  Dy2Si2Ru4C2
_cell_volume  151.54488757337737
_cell_formula_units_Z  2
loop_
  _symmetry_equiv_pos_site_id
 _symmetry_equiv_pos_as_xyz
 1  'x, y, z'
loop_
 _atom_site_type_symbol
 _atom_site_label
 _atom_site_symmetry_multiplicity
 _atom_site_fract_x
 _atom_site_fract_y
 _atom_site_fract_z
 _atom_site_fract_occupancy
 C  C1  1  0.50000  0.00000  0.00000  1
 C  C2  1  0.50000  0.00000  0.50000  1
 Dy  Dy1  1  0.04725  0.09449  0.75000  1
 Dy  Dy2  1  0.95275  0.90551  0.25000  1
 Ru  Ru1  1  0.33628  0.67256  0.94378  1
 Ru  Ru2  1  0.33628  0.67256  0.55622  1
 Ru  Ru3  1  0.66372  0.32744  0.05622  1
 Ru  Ru4  1  0.66372  0.32744  0.44378  1
 Si  Si1  1  0.23085  0.46171  0.25000  1
 Si  Si2  1  0.76915  0.53829  0.75000  1
