CIF file written using JARVIS-Tools package.
data_CrHO2
_symmetry_space_group_name_H-M  'P2_1/c'
_cell_length_a       4.81133
_cell_length_b       19.2513
_cell_length_c       9.14124
_cell_angle_alpha    18.2543
_cell_angle_beta     32.204
_cell_angle_gamma    36.5275

_symmetry_Int_Tables_number  14
_chemical_formula_structural  CrHO2
_chemical_formula_sum  Cr4H4O8
_cell_volume  141.3434276838575
_cell_formula_units_Z  4
loop_
  _symmetry_equiv_pos_site_id
 _symmetry_equiv_pos_as_xyz
 1  'x, y, z'
loop_
 _atom_site_type_symbol
 _atom_site_label
 _atom_site_symmetry_multiplicity
 _atom_site_fract_x
 _atom_site_fract_y
 _atom_site_fract_z
 _atom_site_fract_occupancy
 Cr  Cr1  1  0.01174  0.00021  0.99249  1
 Cr  Cr2  1  0.01174  0.24979  0.99333  1
 Cr  Cr3  1  0.98826  0.50021  0.00667  1
 Cr  Cr4  1  0.98826  0.74979  0.00751  1
 H  H1  1  0.48995  0.25067  0.48488  1
 H  H2  1  0.51005  0.49933  0.51512  1
 H  H3  1  0.51006  0.75066  0.51246  1
 H  H4  1  0.48994  0.99934  0.48754  1
 O  O1  1  0.59693  0.00128  0.59069  1
 O  O2  1  0.41081  0.25178  0.40366  1
 O  O3  1  0.59693  0.24872  0.59581  1
 O  O4  1  0.40307  0.50128  0.40419  1
 O  O5  1  0.58919  0.49822  0.59634  1
 O  O6  1  0.40307  0.74872  0.40931  1
 O  O7  1  0.58919  0.75177  0.58925  1
 O  O8  1  0.41081  0.99823  0.41075  1
