CIF file written using JARVIS-Tools package.
data_SmMg5Sb4
_symmetry_space_group_name_H-M  'P-3m1'
_cell_length_a       4.63328
_cell_length_b       4.63328
_cell_length_c       14.6587
_cell_angle_alpha    90
_cell_angle_beta     90
_cell_angle_gamma    120

_symmetry_Int_Tables_number  164
_chemical_formula_structural  SmMg5Sb4
_chemical_formula_sum  SmMg5Sb4
_cell_volume  272.52288944649587
_cell_formula_units_Z  1
loop_
  _symmetry_equiv_pos_site_id
 _symmetry_equiv_pos_as_xyz
 1  'x, y, z'
loop_
 _atom_site_type_symbol
 _atom_site_label
 _atom_site_symmetry_multiplicity
 _atom_site_fract_x
 _atom_site_fract_y
 _atom_site_fract_z
 _atom_site_fract_occupancy
 Mg  Mg1  1  0.33333  0.66667  0.32555  1
 Mg  Mg2  1  0.66667  0.33333  0.67445  1
 Mg  Mg3  1  0.00000  0.00000  0.50000  1
 Mg  Mg4  1  0.33333  0.66667  0.81063  1
 Mg  Mg5  1  0.66667  0.33333  0.18937  1
 Sb  Sb1  1  0.33333  0.66667  0.12359  1
 Sb  Sb2  1  0.66667  0.33333  0.87641  1
 Sb  Sb3  1  0.33333  0.66667  0.61188  1
 Sb  Sb4  1  0.66667  0.33333  0.38812  1
 Sm  Sm1  1  0.00000  0.00000  0.00000  1
