CIF file written using JARVIS-Tools package.
data_Li8HfO6
_symmetry_space_group_name_H-M  'R-3'
_cell_length_a       6.01937
_cell_length_b       6.01937
_cell_length_c       6.01936
_cell_angle_alpha    53.8729
_cell_angle_beta     53.8729
_cell_angle_gamma    53.873

_symmetry_Int_Tables_number  148
_chemical_formula_structural  Li8HfO6
_chemical_formula_sum  Li8HfO6
_cell_volume  132.13776664274
_cell_formula_units_Z  1
loop_
  _symmetry_equiv_pos_site_id
 _symmetry_equiv_pos_as_xyz
 1  'x, y, z'
loop_
 _atom_site_type_symbol
 _atom_site_label
 _atom_site_symmetry_multiplicity
 _atom_site_fract_x
 _atom_site_fract_y
 _atom_site_fract_z
 _atom_site_fract_occupancy
 Hf  Hf1  1  0.00000  0.00000  0.00000  1
 Li  Li1  1  0.10339  0.76555  0.49599  1
 Li  Li2  1  0.50401  0.89661  0.23445  1
 Li  Li3  1  0.23445  0.50401  0.89661  1
 Li  Li4  1  0.34435  0.34435  0.34435  1
 Li  Li5  1  0.65565  0.65565  0.65565  1
 Li  Li6  1  0.76555  0.49599  0.10339  1
 Li  Li7  1  0.49599  0.10339  0.76555  1
 Li  Li8  1  0.89661  0.23445  0.50401  1
 O  O1  1  0.23516  0.90807  0.61306  1
 O  O2  1  0.38694  0.76484  0.09193  1
 O  O3  1  0.09193  0.38694  0.76484  1
 O  O4  1  0.90807  0.61306  0.23516  1
 O  O5  1  0.61306  0.23516  0.90807  1
 O  O6  1  0.76484  0.09193  0.38694  1
