CIF file written using JARVIS-Tools package.
data_Zr4Co7Ge6
_symmetry_space_group_name_H-M  'Im-3m'
_cell_length_a       6.82885
_cell_length_b       6.82885
_cell_length_c       6.82885
_cell_angle_alpha    109.471
_cell_angle_beta     109.471
_cell_angle_gamma    109.471

_symmetry_Int_Tables_number  229
_chemical_formula_structural  Zr4Co7Ge6
_chemical_formula_sum  Zr4Co7Ge6
_cell_volume  245.1436953414811
_cell_formula_units_Z  1
loop_
  _symmetry_equiv_pos_site_id
 _symmetry_equiv_pos_as_xyz
 1  'x, y, z'
loop_
 _atom_site_type_symbol
 _atom_site_label
 _atom_site_symmetry_multiplicity
 _atom_site_fract_x
 _atom_site_fract_y
 _atom_site_fract_z
 _atom_site_fract_occupancy
 Co  Co1  1  0.75000  0.50000  0.25000  1
 Co  Co2  1  0.50000  0.25000  0.75000  1
 Co  Co3  1  0.00000  0.00000  0.00000  1
 Co  Co4  1  0.75000  0.25000  0.50000  1
 Co  Co5  1  0.25000  0.50000  0.75000  1
 Co  Co6  1  0.50000  0.75000  0.25000  1
 Co  Co7  1  0.25000  0.75000  0.50000  1
 Ge  Ge1  1  -0.00000  0.31851  0.31851  1
 Ge  Ge2  1  0.68149  0.00000  0.68149  1
 Ge  Ge3  1  0.68149  0.68149  0.00000  1
 Ge  Ge4  1  0.31851  0.31851  -0.00000  1
 Ge  Ge5  1  0.00000  0.68149  0.68149  1
 Ge  Ge6  1  0.31851  -0.00000  0.31851  1
 Zr  Zr1  1  0.50000  0.50000  0.50000  1
 Zr  Zr2  1  0.00000  0.00000  0.50000  1
 Zr  Zr3  1  0.00000  0.50000  0.00000  1
 Zr  Zr4  1  0.50000  0.00000  -0.00000  1
