CIF file written using JARVIS-Tools package.
data_Y2SiO5
_symmetry_space_group_name_H-M  'C2/c'
_cell_length_a       6.7659
_cell_length_b       8.011
_cell_length_c       9.62343
_cell_angle_alpha    72.0162
_cell_angle_beta     69.4189
_cell_angle_gamma    65.0209

_symmetry_Int_Tables_number  15
_chemical_formula_structural  Y2SiO5
_chemical_formula_sum  Y8Si4O20
_cell_volume  434.66812157908925
_cell_formula_units_Z  4
loop_
  _symmetry_equiv_pos_site_id
 _symmetry_equiv_pos_as_xyz
 1  'x, y, z'
loop_
 _atom_site_type_symbol
 _atom_site_label
 _atom_site_symmetry_multiplicity
 _atom_site_fract_x
 _atom_site_fract_y
 _atom_site_fract_z
 _atom_site_fract_occupancy
 O  O1  1  0.09035  0.46279  0.35855  1
 O  O2  1  0.42175  0.36166  0.60190  1
 O  O3  1  0.61469  0.86166  0.10190  1
 O  O4  1  0.57825  0.63834  0.39810  1
 O  O5  1  0.26791  0.03818  0.56091  1
 O  O6  1  0.86699  0.46182  0.93909  1
 O  O7  1  0.73209  0.96182  0.43909  1
 O  O8  1  0.13301  0.53818  0.06091  1
 O  O9  1  0.15037  0.73115  0.67486  1
 O  O10  1  0.55638  0.76885  0.82514  1
 O  O11  1  0.84963  0.26885  0.32514  1
 O  O12  1  0.44362  0.23115  0.17486  1
 O  O13  1  0.40703  0.58254  0.18013  1
 O  O14  1  0.16970  0.91746  0.31987  1
 O  O15  1  0.38531  0.13834  0.89810  1
 O  O16  1  0.83030  0.08254  0.68013  1
 O  O17  1  0.91169  0.03721  0.14145  1
 O  O18  1  0.90965  0.53721  0.64145  1
 O  O19  1  0.08831  0.96279  0.85855  1
 O  O20  1  0.59297  0.41746  0.81987  1
 Si  Si1  1  0.09072  0.94454  0.69208  1
 Si  Si2  1  0.72735  0.55546  0.80792  1
 Si  Si3  1  0.90928  0.05546  0.30792  1
 Si  Si4  1  0.27265  0.44454  0.19208  1
 Y  Y1  1  0.48378  0.94696  0.33504  1
 Y  Y2  1  0.70829  0.10833  0.96479  1
 Y  Y3  1  0.78141  0.39167  0.53521  1
 Y  Y4  1  0.29171  0.89167  0.03521  1
 Y  Y5  1  0.21859  0.60833  0.46479  1
 Y  Y6  1  0.51622  0.05304  0.66496  1
 Y  Y7  1  0.23421  0.44696  0.83504  1
 Y  Y8  1  0.76579  0.55304  0.16496  1
