CIF file written using JARVIS-Tools package.
data_Ga2Ag2Se3S
_symmetry_space_group_name_H-M  'C2'
_cell_length_a       6.90787
_cell_length_b       6.90786
_cell_length_c       5.89639
_cell_angle_alpha    64.5295
_cell_angle_beta     64.5296
_cell_angle_gamma    52.0165

_symmetry_Int_Tables_number  5
_chemical_formula_structural  Ga2Ag2Se3S
_chemical_formula_sum  Ga2Ag2Se3S
_cell_volume  194.73349842839016
_cell_formula_units_Z  1
loop_
  _symmetry_equiv_pos_site_id
 _symmetry_equiv_pos_as_xyz
 1  'x, y, z'
loop_
 _atom_site_type_symbol
 _atom_site_label
 _atom_site_symmetry_multiplicity
 _atom_site_fract_x
 _atom_site_fract_y
 _atom_site_fract_z
 _atom_site_fract_occupancy
 Ag  Ag1  1  0.23308  0.98925  0.19437  1
 Ag  Ag2  1  0.01075  0.76692  0.80563  1
 Ga  Ga1  1  0.75320  0.49821  0.62594  1
 Ga  Ga2  1  0.50179  0.24680  0.37406  1
 S  S1  1  0.43417  0.56583  0.50000  1
 Se  Se1  1  0.86036  0.13964  -0.00000  1
 Se  Se2  1  0.59632  0.87968  0.74114  1
 Se  Se3  1  0.12032  0.40368  0.25886  1
