CIF file written using JARVIS-Tools package.
data_Ca2Sb2O7
_symmetry_space_group_name_H-M  'Imma'
_cell_length_a       7.38951
_cell_length_b       7.37831
_cell_length_c       7.37831
_cell_angle_alpha    61.3529
_cell_angle_beta     59.9498
_cell_angle_gamma    59.9498

_symmetry_Int_Tables_number  74
_chemical_formula_structural  Ca2Sb2O7
_chemical_formula_sum  Ca4Sb4O4
_cell_volume  287.0268014418782
_cell_formula_units_Z  2
loop_
  _symmetry_equiv_pos_site_id
 _symmetry_equiv_pos_as_xyz
 1  'x, y, z'
loop_
 _atom_site_type_symbol
 _atom_site_label
 _atom_site_symmetry_multiplicity
 _atom_site_fract_x
 _atom_site_fract_y
 _atom_site_fract_z
 _atom_site_fract_occupancy
 Ca  Ca1  1  0.50000  0.50000  0.50000  1
 Ca  Ca2  1  0.00000  0.00000  0.00000  1
 Ca  Ca3  1  0.00000  0.50000  0.00000  1
 Ca  Ca4  1  0.50000  0.50000  0.00000  1
 O  O1  1  0.09237  0.67942  0.55701  1
 O  O2  1  0.17120  0.05701  0.17942  1
 O  O3  1  0.40763  0.94299  0.82058  1
 O  O4  1  0.67120  0.67942  0.55701  1
 O  O5  1  0.90763  0.32058  0.44299  1
 O  O6  1  0.82880  0.94299  0.82058  1
 O  O7  1  0.59237  0.05701  0.17942  1
 O  O8  1  0.25000  0.90070  0.59930  1
 O  O9  1  0.90546  0.36456  0.82453  1
 O  O10  1  0.75000  0.09930  0.40070  1
 O  O11  1  0.40546  0.32453  0.86456  1
 O  O12  1  0.59454  0.67547  0.13544  1
 O  O13  1  0.32880  0.32058  0.44299  1
 O  O14  1  0.09454  0.63544  0.17547  1
 Sb  Sb1  1  -0.00000  0.50000  0.50000  1
 Sb  Sb2  1  0.50000  -0.00000  0.50000  1
 Sb  Sb3  1  -0.00000  -0.00000  0.50000  1
 Sb  Sb4  1  0.50000  -0.00000  0.00000  1
