CIF file written using JARVIS-Tools package.
data_Sm3CuSnS7
_symmetry_space_group_name_H-M  'P6_3'
_cell_length_a       9.9422
_cell_length_b       9.9422
_cell_length_c       6.19983
_cell_angle_alpha    90
_cell_angle_beta     90
_cell_angle_gamma    120

_symmetry_Int_Tables_number  173
_chemical_formula_structural  Sm3CuSnS7
_chemical_formula_sum  Sm6Cu2Sn2S4
_cell_volume  530.7325893789393
_cell_formula_units_Z  2
loop_
  _symmetry_equiv_pos_site_id
 _symmetry_equiv_pos_as_xyz
 1  'x, y, z'
loop_
 _atom_site_type_symbol
 _atom_site_label
 _atom_site_symmetry_multiplicity
 _atom_site_fract_x
 _atom_site_fract_y
 _atom_site_fract_z
 _atom_site_fract_occupancy
 Cu  Cu1  1  0.00000  0.00000  0.17755  1
 Cu  Cu2  1  0.00000  0.00000  0.67755  1
 S  S1  1  0.66667  0.33333  0.95126  1
 S  S2  1  0.43609  0.91725  0.01264  1
 S  S3  1  0.14964  0.26013  0.70529  1
 S  S4  1  0.51884  0.43609  0.51264  1
 S  S5  1  0.11049  0.85036  0.70529  1
 S  S6  1  0.88951  0.14964  0.20529  1
 S  S7  1  0.26013  0.11049  0.20529  1
 S  S8  1  0.08275  0.51884  0.01264  1
 S  S9  1  0.91725  0.48116  0.51264  1
 S  S10  1  0.33333  0.66667  0.45126  1
 S  S11  1  0.56391  0.08275  0.51264  1
 S  S12  1  0.48116  0.56391  0.01264  1
 S  S13  1  0.85036  0.73987  0.20529  1
 S  S14  1  0.73987  0.88951  0.70529  1
 Sm  Sm1  1  0.14719  0.78786  0.26890  1
 Sm  Sm2  1  0.78786  0.64067  0.76890  1
 Sm  Sm3  1  0.21214  0.35933  0.26890  1
 Sm  Sm4  1  0.64067  0.85281  0.26890  1
 Sm  Sm5  1  0.85281  0.21214  0.76890  1
 Sm  Sm6  1  0.35933  0.14719  0.76890  1
 Sn  Sn1  1  0.66667  0.33333  0.33698  1
 Sn  Sn2  1  0.33333  0.66667  0.83698  1
