CIF file written using JARVIS-Tools package.
data_RbLuP2O7
_symmetry_space_group_name_H-M  'P2_1/c'
_cell_length_a       7.65284
_cell_length_b       10.7375
_cell_length_c       8.61854
_cell_angle_alpha    90
_cell_angle_beta     105.144
_cell_angle_gamma    90

_symmetry_Int_Tables_number  14
_chemical_formula_structural  RbLuP2O7
_chemical_formula_sum  Rb4Lu4P8O28
_cell_volume  683.6119083788572
_cell_formula_units_Z  4
loop_
  _symmetry_equiv_pos_site_id
 _symmetry_equiv_pos_as_xyz
 1  'x, y, z'
loop_
 _atom_site_type_symbol
 _atom_site_label
 _atom_site_symmetry_multiplicity
 _atom_site_fract_x
 _atom_site_fract_y
 _atom_site_fract_z
 _atom_site_fract_occupancy
 Lu  Lu1  1  0.23299  0.09705  0.25587  1
 Lu  Lu2  1  0.76701  0.90295  0.74413  1
 Lu  Lu3  1  0.76701  0.59705  0.24413  1
 Lu  Lu4  1  0.23299  0.40295  0.75587  1
 O  O1  1  0.08069  0.22777  0.75409  1
 O  O2  1  0.66812  0.89029  0.48330  1
 O  O3  1  0.63168  0.08341  0.72883  1
 O  O4  1  0.66110  0.56929  0.69400  1
 O  O5  1  0.33890  0.43071  0.30600  1
 O  O6  1  0.98610  0.00236  0.27909  1
 O  O7  1  0.33188  0.10971  0.51670  1
 O  O8  1  0.85494  0.91167  0.00086  1
 O  O9  1  0.91931  0.72777  0.74591  1
 O  O10  1  0.54942  0.77804  0.77036  1
 O  O11  1  0.63168  0.41659  0.22883  1
 O  O12  1  0.08069  0.27223  0.25409  1
 O  O13  1  0.36832  0.91659  0.27117  1
 O  O14  1  0.36832  0.58341  0.77117  1
 O  O15  1  0.14506  0.08833  0.99914  1
 O  O16  1  0.91931  0.77223  0.24591  1
 O  O17  1  0.01390  0.50236  0.22091  1
 O  O18  1  0.66110  0.93071  0.19400  1
 O  O19  1  0.33188  0.39029  0.01670  1
 O  O20  1  0.85494  0.58833  0.50086  1
 O  O21  1  0.33890  0.06929  0.80600  1
 O  O22  1  0.01390  -0.00236  0.72091  1
 O  O23  1  0.66812  0.60971  0.98330  1
 O  O24  1  0.45058  0.22196  0.22964  1
 O  O25  1  0.45058  0.27804  0.72964  1
 O  O26  1  0.54942  0.72196  0.27036  1
 O  O27  1  0.98610  0.49764  0.77909  1
 O  O28  1  0.14506  0.41167  0.49914  1
 P  P1  1  0.86451  0.59731  0.67781  1
 P  P2  1  0.44191  0.36039  0.18692  1
 P  P3  1  0.13549  0.40269  0.32219  1
 P  P4  1  0.13549  0.09731  0.82219  1
 P  P5  1  0.44191  0.13961  0.68692  1
 P  P6  1  0.55809  0.86039  0.31308  1
 P  P7  1  0.55809  0.63961  0.81308  1
 P  P8  1  0.86451  0.90269  0.17781  1
 Rb  Rb1  1  0.81311  0.31632  0.94637  1
 Rb  Rb2  1  0.81311  0.18368  0.44637  1
 Rb  Rb3  1  0.18689  0.81632  0.55363  1
 Rb  Rb4  1  0.18689  0.68368  0.05363  1
