CIF file written using JARVIS-Tools package.
data_ScFeO3
_symmetry_space_group_name_H-M  'P6_3/mmc'
_cell_length_a       3.29385
_cell_length_b       3.29385
_cell_length_c       11.5593
_cell_angle_alpha    90
_cell_angle_beta     90
_cell_angle_gamma    120

_symmetry_Int_Tables_number  194
_chemical_formula_structural  ScFeO3
_chemical_formula_sum  Sc2Fe2O6
_cell_volume  108.60948116176336
_cell_formula_units_Z  2
loop_
  _symmetry_equiv_pos_site_id
 _symmetry_equiv_pos_as_xyz
 1  'x, y, z'
loop_
 _atom_site_type_symbol
 _atom_site_label
 _atom_site_symmetry_multiplicity
 _atom_site_fract_x
 _atom_site_fract_y
 _atom_site_fract_z
 _atom_site_fract_occupancy
 Fe  Fe1  1  0.33333  0.66667  0.00000  1
 Fe  Fe2  1  0.66667  0.33333  0.50000  1
 O  O1  1  0.00000  0.00000  0.50000  1
 O  O2  1  0.00000  0.00000  0.00000  1
 O  O3  1  0.33333  0.66667  0.83479  1
 O  O4  1  0.33333  0.66667  0.16521  1
 O  O5  1  0.66667  0.33333  0.66520  1
 O  O6  1  0.66667  0.33333  0.33480  1
 Sc  Sc1  1  0.00000  0.00000  0.25001  1
 Sc  Sc2  1  0.00000  0.00000  0.74999  1
