CIF file written using JARVIS-Tools package.
data_TaAgS3
_symmetry_space_group_name_H-M  'Cmcm'
_cell_length_a       3.39114
_cell_length_b       7.29271
_cell_length_c       7.80436
_cell_angle_alpha    90
_cell_angle_beta     90
_cell_angle_gamma    103.444

_symmetry_Int_Tables_number  63
_chemical_formula_structural  TaAgS3
_chemical_formula_sum  Ta2Ag2S6
_cell_volume  187.71736011868757
_cell_formula_units_Z  2
loop_
  _symmetry_equiv_pos_site_id
 _symmetry_equiv_pos_as_xyz
 1  'x, y, z'
loop_
 _atom_site_type_symbol
 _atom_site_label
 _atom_site_symmetry_multiplicity
 _atom_site_fract_x
 _atom_site_fract_y
 _atom_site_fract_z
 _atom_site_fract_occupancy
 Ag  Ag1  1  0.00000  0.00000  0.50000  1
 Ag  Ag2  1  0.00000  0.00000  0.00000  1
 S  S1  1  0.67301  0.34602  0.92971  1
 S  S2  1  0.32699  0.65398  0.07029  1
 S  S3  1  0.32699  0.65398  0.42971  1
 S  S4  1  0.67301  0.34602  0.57029  1
 S  S5  1  0.89704  0.79408  0.75000  1
 S  S6  1  0.10296  0.20592  0.25000  1
 Ta  Ta1  1  0.26276  0.52552  0.75000  1
 Ta  Ta2  1  0.73724  0.47448  0.25000  1
