CIF file written using JARVIS-Tools package.
data_NaC4N3
_symmetry_space_group_name_H-M  'P-1'
_cell_length_a       3.64823
_cell_length_b       7.69878
_cell_length_c       9.20515
_cell_angle_alpha    105.754
_cell_angle_beta     88.3683
_cell_angle_gamma    101.935

_symmetry_Int_Tables_number  2
_chemical_formula_structural  NaC4N3
_chemical_formula_sum  Na2C8N6
_cell_volume  243.3490057764508
_cell_formula_units_Z  2
loop_
  _symmetry_equiv_pos_site_id
 _symmetry_equiv_pos_as_xyz
 1  'x, y, z'
loop_
 _atom_site_type_symbol
 _atom_site_label
 _atom_site_symmetry_multiplicity
 _atom_site_fract_x
 _atom_site_fract_y
 _atom_site_fract_z
 _atom_site_fract_occupancy
 C  C1  1  0.25005  0.81891  0.20249  1
 C  C2  1  0.29800  0.70614  0.29326  1
 C  C3  1  0.37967  0.53261  0.22667  1
 C  C4  1  0.70200  0.29386  0.70674  1
 C  C5  1  0.62033  0.46739  0.77333  1
 C  C6  1  0.74995  0.18109  0.79751  1
 C  C7  1  0.24006  0.76073  0.44954  1
 C  C8  1  0.75994  0.23927  0.55046  1
 N  N1  1  0.18988  0.80342  0.57910  1
 N  N2  1  0.81012  0.19658  0.42090  1
 N  N3  1  0.44487  0.38629  0.17239  1
 N  N4  1  0.21094  0.91307  0.12551  1
 N  N5  1  0.78906  0.08693  0.87449  1
 N  N6  1  0.55513  0.61371  0.82761  1
 Na  Na1  1  0.16915  0.84372  0.84507  1
 Na  Na2  1  0.83085  0.15628  0.15493  1
