CIF file written using JARVIS-Tools package.
data_Li2SeO4
_symmetry_space_group_name_H-M  'R-3'
_cell_length_a       8.67064
_cell_length_b       8.67064
_cell_length_c       8.67064
_cell_angle_alpha    107.802
_cell_angle_beta     107.802
_cell_angle_gamma    107.802

_symmetry_Int_Tables_number  148
_chemical_formula_structural  Li2SeO4
_chemical_formula_sum  Li2Se6O24
_cell_volume  530.543027226057
_cell_formula_units_Z  6
loop_
  _symmetry_equiv_pos_site_id
 _symmetry_equiv_pos_as_xyz
 1  'x, y, z'
loop_
 _atom_site_type_symbol
 _atom_site_label
 _atom_site_symmetry_multiplicity
 _atom_site_fract_x
 _atom_site_fract_y
 _atom_site_fract_z
 _atom_site_fract_occupancy
 Li  Li1  1  0.06472  0.29643  0.89239  1
 Li  Li2  1  0.70357  0.10761  0.93528  1
 Li  Li3  1  0.89239  0.06472  0.29643  1
 Li  Li4  1  0.29643  0.89239  0.06472  1
 Li  Li5  1  0.10761  0.93528  0.70357  1
 Li  Li6  1  0.62281  0.22340  0.39749  1
 Li  Li7  1  0.93528  0.70357  0.10761  1
 Li  Li8  1  0.22340  0.39749  0.62281  1
 Li  Li9  1  0.60251  0.37719  0.77660  1
 Li  Li10  1  0.77660  0.60251  0.37719  1
 Li  Li11  1  0.37719  0.77660  0.60251  1
 Li  Li12  1  0.39749  0.62281  0.22340  1
 O  O1  1  0.07708  0.42947  0.74763  1
 O  O2  1  0.81376  0.10541  0.76829  1
 O  O3  1  0.92292  0.57053  0.25237  1
 O  O4  1  0.57053  0.25237  0.92292  1
 O  O5  1  0.89459  0.23171  0.18624  1
 O  O6  1  0.42947  0.74763  0.07708  1
 O  O7  1  0.53486  0.86202  0.85352  1
 O  O8  1  0.14648  0.46514  0.13798  1
 O  O9  1  0.46514  0.13798  0.14648  1
 O  O10  1  0.25237  0.92292  0.57053  1
 O  O11  1  0.81055  0.47286  0.52251  1
 O  O12  1  0.76829  0.81376  0.10541  1
 O  O13  1  0.74763  0.07708  0.42947  1
 O  O14  1  0.10541  0.76829  0.81376  1
 O  O15  1  0.18945  0.52714  0.47749  1
 O  O16  1  0.23171  0.18624  0.89459  1
 O  O17  1  0.52251  0.81055  0.47286  1
 O  O18  1  0.47749  0.18945  0.52714  1
 O  O19  1  0.52714  0.47749  0.18945  1
 O  O20  1  0.13798  0.14648  0.46514  1
 O  O21  1  0.47286  0.52251  0.81055  1
 O  O22  1  0.86202  0.85352  0.53486  1
 O  O23  1  0.18624  0.89459  0.23171  1
 O  O24  1  0.85352  0.53486  0.86202  1
 Se  Se1  1  0.55197  0.73480  0.96267  1
 Se  Se2  1  0.96267  0.55197  0.73480  1
 Se  Se3  1  0.03733  0.44803  0.26520  1
 Se  Se4  1  0.44803  0.26520  0.03733  1
 Se  Se5  1  0.26520  0.03733  0.44803  1
 Se  Se6  1  0.73480  0.96267  0.55197  1
