CIF file written using JARVIS-Tools package.
data_K6Ge2O7
_symmetry_space_group_name_H-M  'P2_1/c'
_cell_length_a       6.54766
_cell_length_b       9.14103
_cell_length_c       11.1424
_cell_angle_alpha    90
_cell_angle_beta     124.038
_cell_angle_gamma    90

_symmetry_Int_Tables_number  14
_chemical_formula_structural  K6Ge2O7
_chemical_formula_sum  K2Ge4O4
_cell_volume  552.6330122830352
_cell_formula_units_Z  2
loop_
  _symmetry_equiv_pos_site_id
 _symmetry_equiv_pos_as_xyz
 1  'x, y, z'
loop_
 _atom_site_type_symbol
 _atom_site_label
 _atom_site_symmetry_multiplicity
 _atom_site_fract_x
 _atom_site_fract_y
 _atom_site_fract_z
 _atom_site_fract_occupancy
 Ge  Ge1  1  0.68973  0.39308  0.63791  1
 Ge  Ge2  1  0.31426  0.89306  0.86960  1
 Ge  Ge3  1  0.31426  0.10694  0.36960  1
 Ge  Ge4  1  0.68973  0.60692  0.13791  1
 K  K1  1  0.40712  0.45963  0.28509  1
 K  K2  1  0.59689  0.95972  0.22243  1
 K  K3  1  0.04931  0.39961  0.42976  1
 K  K4  1  0.04931  0.60039  0.92976  1
 K  K5  1  0.40712  0.54037  0.78509  1
 K  K6  1  0.20671  0.77480  0.45581  1
 K  K7  1  0.79706  0.27489  0.05168  1
 K  K8  1  0.79706  0.72511  0.55168  1
 K  K9  1  0.95463  0.10041  0.57782  1
 K  K10  1  0.95463  0.89959  0.07782  1
 K  K11  1  0.59689  0.04028  0.72243  1
 K  K12  1  0.20671  0.22520  0.95581  1
 O  O1  1  0.49258  0.45224  0.06904  1
 O  O2  1  0.25201  0.16215  0.19996  1
 O  O3  1  0.25201  0.83785  0.69996  1
 O  O4  1  0.04291  0.08907  0.36874  1
 O  O5  1  0.04291  0.91093  0.86874  1
 O  O6  1  0.51098  0.95207  0.43830  1
 O  O7  1  0.50265  0.75009  0.00371  1
 O  O8  1  0.50265  0.24991  0.50371  1
 O  O9  1  0.49258  0.54776  0.56904  1
 O  O10  1  0.75161  0.66227  0.30743  1
 O  O11  1  0.75161  0.33773  0.80743  1
 O  O12  1  0.96134  0.41138  0.63911  1
 O  O13  1  0.51098  0.04793  0.93830  1
 O  O14  1  0.96134  0.58862  0.13911  1
