CIF file written using JARVIS-Tools package.
data_LiVO2
_symmetry_space_group_name_H-M  'C2/m'
_cell_length_a       4.08368
_cell_length_b       4.84999
_cell_length_c       3.94256
_cell_angle_alpha    113.983
_cell_angle_beta     89.9998
_cell_angle_gamma    110.363

_symmetry_Int_Tables_number  12
_chemical_formula_structural  LiVO2
_chemical_formula_sum  Li2V2O4
_cell_volume  65.96762442079502
_cell_formula_units_Z  2
loop_
  _symmetry_equiv_pos_site_id
 _symmetry_equiv_pos_as_xyz
 1  'x, y, z'
loop_
 _atom_site_type_symbol
 _atom_site_label
 _atom_site_symmetry_multiplicity
 _atom_site_fract_x
 _atom_site_fract_y
 _atom_site_fract_z
 _atom_site_fract_occupancy
 Li  Li1  1  0.39912  0.26569  0.87782  1
 Li  Li2  1  0.59963  0.73609  0.61300  1
 O  O1  1  0.88986  0.25630  0.87312  1
 O  O2  1  0.10889  0.74545  0.61768  1
 O  O3  1  0.39209  0.24395  0.36695  1
 O  O4  1  0.60667  0.75780  0.12385  1
 V  V1  1  0.09950  0.77428  0.13210  1
 V  V2  1  0.89926  0.22745  0.35870  1
