CIF file written using JARVIS-Tools package.
data_CoBiO3
_symmetry_space_group_name_H-M  'P4mm'
_cell_length_a       4.19443
_cell_length_b       5.26016
_cell_length_c       5.26016
_cell_angle_alpha    90
_cell_angle_beta     90
_cell_angle_gamma    90

_symmetry_Int_Tables_number  99
_chemical_formula_structural  CoBiO3
_chemical_formula_sum  Co2Bi2O6
_cell_volume  116.05670217159623
_cell_formula_units_Z  2
loop_
  _symmetry_equiv_pos_site_id
 _symmetry_equiv_pos_as_xyz
 1  'x, y, z'
loop_
 _atom_site_type_symbol
 _atom_site_label
 _atom_site_symmetry_multiplicity
 _atom_site_fract_x
 _atom_site_fract_y
 _atom_site_fract_z
 _atom_site_fract_occupancy
 Bi  Bi1  1  0.04792  -0.00000  0.00000  1
 Bi  Bi2  1  0.04792  0.50000  0.50000  1
 Co  Co1  1  0.61251  -0.00000  0.50000  1
 Co  Co2  1  0.61251  0.50000  0.00000  1
 O  O1  1  0.16986  0.50000  0.00000  1
 O  O2  1  0.16986  0.00000  0.50000  1
 O  O3  1  0.69911  0.25000  0.75000  1
 O  O4  1  0.69911  0.75000  0.25000  1
 O  O5  1  0.69910  0.25000  0.25000  1
 O  O6  1  0.69910  0.75000  0.75000  1
