CIF file written using JARVIS-Tools package.
data_SrSmNiO4
_symmetry_space_group_name_H-M  'I4mm'
_cell_length_a       6.63791
_cell_length_b       6.63792
_cell_length_c       6.63792
_cell_angle_alpha    146.776
_cell_angle_beta     146.776
_cell_angle_gamma    47.6951

_symmetry_Int_Tables_number  107
_chemical_formula_structural  SrSmNiO4
_chemical_formula_sum  SrSmNiO4
_cell_volume  87.45529038242857
_cell_formula_units_Z  1
loop_
  _symmetry_equiv_pos_site_id
 _symmetry_equiv_pos_as_xyz
 1  'x, y, z'
loop_
 _atom_site_type_symbol
 _atom_site_label
 _atom_site_symmetry_multiplicity
 _atom_site_fract_x
 _atom_site_fract_y
 _atom_site_fract_z
 _atom_site_fract_occupancy
 Ni  Ni1  1  0.00372  0.00372  0.00000  1
 O  O1  1  0.83977  0.83977  0.00000  1
 O  O2  1  0.17156  0.17156  -0.00000  1
 O  O3  1  0.99021  0.49021  0.50000  1
 O  O4  1  0.49021  0.99021  0.50000  1
 Sm  Sm1  1  0.36305  0.36305  0.00000  1
 Sr  Sr1  1  0.64149  0.64149  -0.00000  1
