CIF file written using JARVIS-Tools package.
data_CuNi3O4
_symmetry_space_group_name_H-M  'R-3m'
_cell_length_a       2.95193
_cell_length_b       2.95193
_cell_length_c       9.8323
_cell_angle_alpha    90
_cell_angle_beta     81.3665
_cell_angle_gamma    120

_symmetry_Int_Tables_number  166
_chemical_formula_structural  CuNi3O4
_chemical_formula_sum  CuNi3O4
_cell_volume  73.07566057097426
_cell_formula_units_Z  1
loop_
  _symmetry_equiv_pos_site_id
 _symmetry_equiv_pos_as_xyz
 1  'x, y, z'
loop_
 _atom_site_type_symbol
 _atom_site_label
 _atom_site_symmetry_multiplicity
 _atom_site_fract_x
 _atom_site_fract_y
 _atom_site_fract_z
 _atom_site_fract_occupancy
 Cu  Cu1  1  0.00000  0.00000  0.00000  1
 Ni  Ni1  1  0.49866  0.24933  0.25201  1
 Ni  Ni2  1  0.00000  0.50000  0.50000  1
 Ni  Ni3  1  0.50134  0.75067  0.74799  1
 O  O1  1  0.25061  0.12530  0.62409  1
 O  O2  1  0.75759  0.37879  0.86362  1
 O  O3  1  0.24241  0.62121  0.13638  1
 O  O4  1  0.74939  0.87470  0.37591  1
