CIF file written using JARVIS-Tools package.
data_YbPO4
_symmetry_space_group_name_H-M  'I4_1/amd'
_cell_length_a       5.77479
_cell_length_b       5.77479
_cell_length_c       5.77479
_cell_angle_alpha    106.351
_cell_angle_beta     106.351
_cell_angle_gamma    115.909

_symmetry_Int_Tables_number  141
_chemical_formula_structural  YbPO4
_chemical_formula_sum  Yb2P2O8
_cell_volume  146.82820352819442
_cell_formula_units_Z  2
loop_
  _symmetry_equiv_pos_site_id
 _symmetry_equiv_pos_as_xyz
 1  'x, y, z'
loop_
 _atom_site_type_symbol
 _atom_site_label
 _atom_site_symmetry_multiplicity
 _atom_site_fract_x
 _atom_site_fract_y
 _atom_site_fract_z
 _atom_site_fract_occupancy
 O  O1  1  0.22184  0.64873  0.92689  1
 O  O2  1  0.29495  0.22184  0.07311  1
 O  O3  1  0.64873  0.22184  0.42689  1
 O  O4  1  0.22184  0.29495  0.57311  1
 O  O5  1  0.70505  0.77816  0.92689  1
 O  O6  1  0.77816  0.35127  0.07311  1
 O  O7  1  0.77816  0.70505  0.42689  1
 O  O8  1  0.35127  0.77816  0.57311  1
 P  P1  1  0.37500  0.62500  0.75000  1
 P  P2  1  0.62500  0.37500  0.25000  1
 Yb  Yb1  1  0.12500  0.87500  0.25000  1
 Yb  Yb2  1  0.87500  0.12500  0.75000  1
