CIF file written using JARVIS-Tools package.
data_Na2P2PbO7
_symmetry_space_group_name_H-M  'P-1'
_cell_length_a       5.51879
_cell_length_b       6.95664
_cell_length_c       9.4218
_cell_angle_alpha    106.145
_cell_angle_beta     95.8906
_cell_angle_gamma    109.228

_symmetry_Int_Tables_number  2
_chemical_formula_structural  Na2P2PbO7
_chemical_formula_sum  Na4P4Pb2O4
_cell_volume  320.4656411593754
_cell_formula_units_Z  2
loop_
  _symmetry_equiv_pos_site_id
 _symmetry_equiv_pos_as_xyz
 1  'x, y, z'
loop_
 _atom_site_type_symbol
 _atom_site_label
 _atom_site_symmetry_multiplicity
 _atom_site_fract_x
 _atom_site_fract_y
 _atom_site_fract_z
 _atom_site_fract_occupancy
 Na  Na1  1  0.35252  0.62555  0.77075  1
 Na  Na2  1  0.08334  0.28111  0.99883  1
 Na  Na3  1  0.91666  0.71889  0.00117  1
 Na  Na4  1  0.64748  0.37445  0.22925  1
 O  O1  1  0.34995  0.68232  0.52980  1
 O  O2  1  0.21454  0.41050  0.26247  1
 O  O3  1  0.01594  0.69908  0.32604  1
 O  O4  1  0.23158  0.02920  0.84662  1
 O  O5  1  0.33073  0.01434  0.17296  1
 O  O6  1  0.50190  0.19917  0.68631  1
 O  O7  1  0.78546  0.58950  0.73753  1
 O  O8  1  0.33051  0.65182  0.02393  1
 O  O9  1  0.49810  0.80083  0.31369  1
 O  O10  1  0.98406  0.30092  0.67396  1
 O  O11  1  0.65005  0.31768  0.47020  1
 O  O12  1  0.76842  0.97080  0.15338  1
 O  O13  1  0.66949  0.34818  0.97607  1
 O  O14  1  0.66927  0.98566  0.82704  1
 P  P1  1  0.52014  0.14054  0.84447  1
 P  P2  1  0.25354  0.64098  0.36275  1
 P  P3  1  0.74646  0.35902  0.63725  1
 P  P4  1  0.47986  0.85946  0.15553  1
 Pb  Pb1  1  0.13379  0.12901  0.37317  1
 Pb  Pb2  1  0.86621  0.87099  0.62683  1
