CIF file written using JARVIS-Tools package.
data_B4MoRu2
_symmetry_space_group_name_H-M  'Immm'
_cell_length_a       6.95044
_cell_length_b       6.95045
_cell_length_c       6.95044
_cell_angle_alpha    155.016
_cell_angle_beta     152.281
_cell_angle_gamma    37.659

_symmetry_Int_Tables_number  71
_chemical_formula_structural  B4MoRu2
_chemical_formula_sum  B4MoRu2
_cell_volume  65.86674885843108
_cell_formula_units_Z  1
loop_
  _symmetry_equiv_pos_site_id
 _symmetry_equiv_pos_as_xyz
 1  'x, y, z'
loop_
 _atom_site_type_symbol
 _atom_site_label
 _atom_site_symmetry_multiplicity
 _atom_site_fract_x
 _atom_site_fract_y
 _atom_site_fract_z
 _atom_site_fract_occupancy
 B  B1  1  0.35372  0.35372  -0.00000  1
 B  B2  1  0.64628  0.64628  0.00000  1
 B  B3  1  0.42985  0.92985  0.50000  1
 B  B4  1  0.57015  0.07015  0.50000  1
 Mo  Mo1  1  -0.00000  0.50000  0.50000  1
 Ru  Ru1  1  0.18055  0.18055  -0.00000  1
 Ru  Ru2  1  0.81945  0.81945  0.00000  1
