CIF file written using JARVIS-Tools package.
data_Na3MnF6
_symmetry_space_group_name_H-M  'P2_1/c'
_cell_length_a       5.45247
_cell_length_b       5.68895
_cell_length_c       9.67318
_cell_angle_alpha    90
_cell_angle_beta     122.512
_cell_angle_gamma    90

_symmetry_Int_Tables_number  14
_chemical_formula_structural  Na3MnF6
_chemical_formula_sum  Na6Mn2F2
_cell_volume  253.02692715227315
_cell_formula_units_Z  2
loop_
  _symmetry_equiv_pos_site_id
 _symmetry_equiv_pos_as_xyz
 1  'x, y, z'
loop_
 _atom_site_type_symbol
 _atom_site_label
 _atom_site_symmetry_multiplicity
 _atom_site_fract_x
 _atom_site_fract_y
 _atom_site_fract_z
 _atom_site_fract_occupancy
 F  F1  1  0.64060  0.94109  0.76307  1
 F  F2  1  0.90443  0.77939  0.56815  1
 F  F3  1  0.35940  0.05891  0.23693  1
 F  F4  1  0.09557  0.22061  0.43185  1
 F  F5  1  0.90443  0.72061  0.06815  1
 F  F6  1  0.09557  0.27939  0.93185  1
 F  F7  1  0.77903  0.17442  0.06077  1
 F  F8  1  0.77903  0.32558  0.56077  1
 F  F9  1  0.22097  0.82558  0.93923  1
 F  F10  1  0.64060  0.55891  0.26307  1
 F  F11  1  0.35940  0.44109  0.73693  1
 F  F12  1  0.22097  0.67442  0.43923  1
 Mn  Mn1  1  0.00000  0.00000  0.00000  1
 Mn  Mn2  1  0.00000  0.50000  0.50000  1
 Na  Na1  1  0.50000  0.00000  0.50000  1
 Na  Na2  1  0.50000  0.50000  -0.00000  1
 Na  Na3  1  0.23407  0.06048  0.74727  1
 Na  Na4  1  0.76593  0.56048  0.75273  1
 Na  Na5  1  0.76593  0.93952  0.25273  1
 Na  Na6  1  0.23407  0.43952  0.24727  1
