CIF file written using JARVIS-Tools package.
data_Mg5Ge
_symmetry_space_group_name_H-M  'R32'
_cell_length_a       5.95776
_cell_length_b       5.95776
_cell_length_c       5.95776
_cell_angle_alpha    53.5978
_cell_angle_beta     53.5979
_cell_angle_gamma    53.5979

_symmetry_Int_Tables_number  155
_chemical_formula_structural  Mg5Ge
_chemical_formula_sum  Mg5Ge
_cell_volume  127.13848611429731
_cell_formula_units_Z  1
loop_
  _symmetry_equiv_pos_site_id
 _symmetry_equiv_pos_as_xyz
 1  'x, y, z'
loop_
 _atom_site_type_symbol
 _atom_site_label
 _atom_site_symmetry_multiplicity
 _atom_site_fract_x
 _atom_site_fract_y
 _atom_site_fract_z
 _atom_site_fract_occupancy
 Ge  Ge1  1  0.00000  0.00000  0.00000  1
 Mg  Mg1  1  0.16094  0.83906  0.50000  1
 Mg  Mg2  1  0.50000  0.16094  0.83906  1
 Mg  Mg3  1  0.83906  0.50000  0.16094  1
 Mg  Mg4  1  0.33293  0.33293  0.33293  1
 Mg  Mg5  1  0.66707  0.66707  0.66707  1
