CIF file written using JARVIS-Tools package.
data_NdVO3
_symmetry_space_group_name_H-M  'Pnma'
_cell_length_a       5.45264
_cell_length_b       5.632
_cell_length_c       7.78169
_cell_angle_alpha    90
_cell_angle_beta     90
_cell_angle_gamma    90

_symmetry_Int_Tables_number  62
_chemical_formula_structural  NdVO3
_chemical_formula_sum  Nd4V4O2
_cell_volume  238.97018504506684
_cell_formula_units_Z  4
loop_
  _symmetry_equiv_pos_site_id
 _symmetry_equiv_pos_as_xyz
 1  'x, y, z'
loop_
 _atom_site_type_symbol
 _atom_site_label
 _atom_site_symmetry_multiplicity
 _atom_site_fract_x
 _atom_site_fract_y
 _atom_site_fract_z
 _atom_site_fract_occupancy
 Nd  Nd1  1  0.98776  0.05276  0.25000  1
 Nd  Nd2  1  0.48776  0.44724  0.75000  1
 Nd  Nd3  1  0.51224  0.55276  0.25000  1
 Nd  Nd4  1  0.01224  0.94724  0.75000  1
 O  O1  1  0.08619  0.47669  0.25000  1
 O  O2  1  0.20486  0.20680  0.54539  1
 O  O3  1  0.41381  0.97669  0.25000  1
 O  O4  1  0.91381  0.52331  0.75000  1
 O  O5  1  0.58619  0.02331  0.75000  1
 O  O6  1  0.20486  0.20680  0.95461  1
 O  O7  1  0.79514  0.79320  0.45461  1
 O  O8  1  0.29514  0.70680  0.95461  1
 O  O9  1  0.70486  0.29320  0.04539  1
 O  O10  1  0.79514  0.79320  0.04539  1
 O  O11  1  0.29514  0.70680  0.54539  1
 O  O12  1  0.70486  0.29320  0.45461  1
 V  V1  1  0.50000  0.00000  0.50000  1
 V  V2  1  0.00000  0.50000  0.50000  1
 V  V3  1  0.00000  0.50000  0.00000  1
 V  V4  1  0.50000  0.00000  0.00000  1
