CIF file written using JARVIS-Tools package.
data_UTl2Te2O8
_symmetry_space_group_name_H-M  'P-1'
_cell_length_a       7.34721
_cell_length_b       7.94846
_cell_length_c       8.92503
_cell_angle_alpha    94.1049
_cell_angle_beta     107.177
_cell_angle_gamma    106.724

_symmetry_Int_Tables_number  2
_chemical_formula_structural  UTl2Te2O8
_chemical_formula_sum  U2Tl4Te4O6
_cell_volume  469.8696947869182
_cell_formula_units_Z  2
loop_
  _symmetry_equiv_pos_site_id
 _symmetry_equiv_pos_as_xyz
 1  'x, y, z'
loop_
 _atom_site_type_symbol
 _atom_site_label
 _atom_site_symmetry_multiplicity
 _atom_site_fract_x
 _atom_site_fract_y
 _atom_site_fract_z
 _atom_site_fract_occupancy
 O  O1  1  0.17274  0.13784  0.54920  1
 O  O2  1  0.58968  0.89186  0.11321  1
 O  O3  1  0.41032  0.10814  0.88679  1
 O  O4  1  0.77270  0.19996  0.37792  1
 O  O5  1  0.22730  0.80004  0.62208  1
 O  O6  1  0.18391  0.29258  0.30795  1
 O  O7  1  0.00490  0.91284  0.19532  1
 O  O8  1  0.41883  0.49634  0.61419  1
 O  O9  1  0.16111  0.78186  0.93237  1
 O  O10  1  0.31049  0.71571  0.24825  1
 O  O11  1  0.81609  0.70742  0.69205  1
 O  O12  1  0.68951  0.28429  0.75175  1
 O  O13  1  0.82726  0.86216  0.45080  1
 O  O14  1  0.99510  0.08716  0.80468  1
 O  O15  1  0.83889  0.21814  0.06763  1
 O  O16  1  0.58117  0.50366  0.38581  1
 Te  Te1  1  0.59389  0.71505  0.51242  1
 Te  Te2  1  0.40611  0.28495  0.48758  1
 Te  Te3  1  0.66087  0.09111  0.86447  1
 Te  Te4  1  0.33913  0.90889  0.13553  1
 Tl  Tl1  1  0.96600  0.57863  0.31615  1
 Tl  Tl2  1  0.70612  0.58265  0.91501  1
 Tl  Tl3  1  0.29388  0.41735  0.08499  1
 Tl  Tl4  1  0.03400  0.42137  0.68385  1
 U  U1  1  0.89217  0.06227  0.28531  1
 U  U2  1  0.10782  0.93773  0.71469  1
