CIF file written using JARVIS-Tools package.
data_MoPd4
_symmetry_space_group_name_H-M  'R-3m'
_cell_length_a       11.5055
_cell_length_b       11.5055
_cell_length_c       11.5055
_cell_angle_alpha    13.8912
_cell_angle_beta     13.8912
_cell_angle_gamma    13.8912

_symmetry_Int_Tables_number  166
_chemical_formula_structural  MoPd4
_chemical_formula_sum  MoPd4
_cell_volume  76.39759097675744
_cell_formula_units_Z  1
loop_
  _symmetry_equiv_pos_site_id
 _symmetry_equiv_pos_as_xyz
 1  'x, y, z'
loop_
 _atom_site_type_symbol
 _atom_site_label
 _atom_site_symmetry_multiplicity
 _atom_site_fract_x
 _atom_site_fract_y
 _atom_site_fract_z
 _atom_site_fract_occupancy
 Mo  Mo1  1  0.00000  0.00000  0.00000  1
 Pd  Pd1  1  0.60167  0.60167  0.60167  1
 Pd  Pd2  1  0.20042  0.20042  0.20042  1
 Pd  Pd3  1  0.79958  0.79958  0.79958  1
 Pd  Pd4  1  0.39833  0.39833  0.39833  1
