CIF file written using JARVIS-Tools package.
data_BiPb2F7
_symmetry_space_group_name_H-M  'I4/mmm'
_cell_length_a       9.75785
_cell_length_b       9.75785
_cell_length_c       9.75785
_cell_angle_alpha    156.262
_cell_angle_beta     156.262
_cell_angle_gamma    33.8197

_symmetry_Int_Tables_number  139
_chemical_formula_structural  BiPb2F7
_chemical_formula_sum  BiPb2F7
_cell_volume  150.41326196691315
_cell_formula_units_Z  1
loop_
  _symmetry_equiv_pos_site_id
 _symmetry_equiv_pos_as_xyz
 1  'x, y, z'
loop_
 _atom_site_type_symbol
 _atom_site_label
 _atom_site_symmetry_multiplicity
 _atom_site_fract_x
 _atom_site_fract_y
 _atom_site_fract_z
 _atom_site_fract_occupancy
 Bi  Bi1  1  0.50000  0.50000  0.00000  1
 F  F1  1  0.25000  0.75000  0.50000  1
 F  F2  1  0.58456  0.08456  0.50000  1
 F  F3  1  0.91544  0.41544  0.50000  1
 F  F4  1  0.08456  0.58456  0.50000  1
 F  F5  1  0.41544  0.91544  0.50000  1
 F  F6  1  0.75000  0.25000  0.50000  1
 F  F7  1  0.00000  0.00000  0.00000  1
 Pb  Pb1  1  0.83381  0.83381  -0.00000  1
 Pb  Pb2  1  0.16619  0.16619  0.00000  1
