CIF file written using JARVIS-Tools package.
data_KNaMoO2F4
_symmetry_space_group_name_H-M  'P4/nmm'
_cell_length_a       5.97996
_cell_length_b       5.97996
_cell_length_c       8.34514
_cell_angle_alpha    90
_cell_angle_beta     90
_cell_angle_gamma    90

_symmetry_Int_Tables_number  129
_chemical_formula_structural  KNaMoO2F4
_chemical_formula_sum  K2Na2Mo2O4F8
_cell_volume  298.4214322549268
_cell_formula_units_Z  2
loop_
  _symmetry_equiv_pos_site_id
 _symmetry_equiv_pos_as_xyz
 1  'x, y, z'
loop_
 _atom_site_type_symbol
 _atom_site_label
 _atom_site_symmetry_multiplicity
 _atom_site_fract_x
 _atom_site_fract_y
 _atom_site_fract_z
 _atom_site_fract_occupancy
 F  F1  1  0.23045  0.73045  0.73367  1
 F  F2  1  0.76955  0.26955  0.73367  1
 F  F3  1  0.73045  0.23045  0.26633  1
 F  F4  1  0.26955  0.23045  0.26633  1
 F  F5  1  0.73045  0.76955  0.26633  1
 F  F6  1  0.26955  0.76955  0.26633  1
 F  F7  1  0.76955  0.73045  0.73367  1
 F  F8  1  0.23045  0.26955  0.73367  1
 K  K1  1  0.50000  0.50000  0.50000  1
 K  K2  1  0.00000  0.00000  0.50000  1
 Mo  Mo1  1  0.00000  0.50000  0.74183  1
 Mo  Mo2  1  0.50000  0.00000  0.25817  1
 Na  Na1  1  0.50000  0.00000  0.77536  1
 Na  Na2  1  0.00000  0.50000  0.22464  1
 O  O1  1  0.50000  0.00000  0.47837  1
 O  O2  1  0.00000  0.50000  0.95262  1
 O  O3  1  0.00000  0.50000  0.52163  1
 O  O4  1  0.50000  0.00000  0.04738  1
