CIF file written using JARVIS-Tools package.
data_MgO
_symmetry_space_group_name_H-M  'P3m1'
_cell_length_a       3.27695
_cell_length_b       3.27695
_cell_length_c       15.6017
_cell_angle_alpha    90.0001
_cell_angle_beta     89.9999
_cell_angle_gamma    120.002

_symmetry_Int_Tables_number  156
_chemical_formula_structural  MgO
_chemical_formula_sum  Mg6O6
_cell_volume  145.088116347084
_cell_formula_units_Z  6
loop_
  _symmetry_equiv_pos_site_id
 _symmetry_equiv_pos_as_xyz
 1  'x, y, z'
loop_
 _atom_site_type_symbol
 _atom_site_label
 _atom_site_symmetry_multiplicity
 _atom_site_fract_x
 _atom_site_fract_y
 _atom_site_fract_z
 _atom_site_fract_occupancy
 Mg  Mg1  1  0.33326  0.66674  0.35204  1
 Mg  Mg2  1  0.33331  0.66669  0.02075  1
 Mg  Mg3  1  0.99993  0.00007  0.18639  1
 Mg  Mg4  1  0.99998  0.00002  0.51826  1
 Mg  Mg5  1  0.00007  0.99993  0.85262  1
 Mg  Mg6  1  0.66675  0.33325  0.68639  1
 O  O1  1  0.33326  0.66674  0.14816  1
 O  O2  1  0.33331  0.66669  0.47948  1
 O  O3  1  0.99998  0.00002  0.98130  1
 O  O4  1  0.99993  0.00007  0.31380  1
 O  O5  1  0.00007  0.99993  0.64694  1
 O  O6  1  0.66674  0.33326  0.81383  1
