CIF file written using JARVIS-Tools package.
data_Ni3Sb2Te2
_symmetry_space_group_name_H-M  'Cm'
_cell_length_a       6.51989
_cell_length_b       6.51989
_cell_length_c       6.78274
_cell_angle_alpha    59.553
_cell_angle_beta     59.553
_cell_angle_gamma    35.4412

_symmetry_Int_Tables_number  8
_chemical_formula_structural  Ni3Sb2Te2
_chemical_formula_sum  Ni3Sb2Te2
_cell_volume  141.5703939233312
_cell_formula_units_Z  1
loop_
  _symmetry_equiv_pos_site_id
 _symmetry_equiv_pos_as_xyz
 1  'x, y, z'
loop_
 _atom_site_type_symbol
 _atom_site_label
 _atom_site_symmetry_multiplicity
 _atom_site_fract_x
 _atom_site_fract_y
 _atom_site_fract_z
 _atom_site_fract_occupancy
 Ni  Ni1  1  0.25451  0.25451  0.73688  1
 Ni  Ni2  1  0.74638  0.74638  0.26248  1
 Ni  Ni3  1  0.99622  0.99622  0.00256  1
 Sb  Sb1  1  0.87601  0.87601  0.46397  1
 Sb  Sb2  1  0.36970  0.36970  0.96499  1
 Te  Te1  1  0.12641  0.12641  0.53257  1
 Te  Te2  1  0.62801  0.62801  0.03655  1
