CIF file written using JARVIS-Tools package.
data_Ca2Cu
_symmetry_space_group_name_H-M  'Pnma'
_cell_length_a       4.17039
_cell_length_b       5.96303
_cell_length_c       14.3173
_cell_angle_alpha    90
_cell_angle_beta     90
_cell_angle_gamma    90

_symmetry_Int_Tables_number  62
_chemical_formula_structural  Ca2Cu
_chemical_formula_sum  Ca8Cu4
_cell_volume  356.04635761199125
_cell_formula_units_Z  4
loop_
  _symmetry_equiv_pos_site_id
 _symmetry_equiv_pos_as_xyz
 1  'x, y, z'
loop_
 _atom_site_type_symbol
 _atom_site_label
 _atom_site_symmetry_multiplicity
 _atom_site_fract_x
 _atom_site_fract_y
 _atom_site_fract_z
 _atom_site_fract_occupancy
 Ca  Ca1  1  0.75000  0.63112  0.66579  1
 Ca  Ca2  1  0.25000  0.36888  0.33421  1
 Ca  Ca3  1  0.75000  0.13112  0.83421  1
 Ca  Ca4  1  0.25000  0.86888  0.16579  1
 Ca  Ca5  1  0.75000  0.86787  0.40738  1
 Ca  Ca6  1  0.25000  0.13213  0.59262  1
 Ca  Ca7  1  0.75000  0.36787  0.09262  1
 Ca  Ca8  1  0.25000  0.63213  0.90738  1
 Cu  Cu1  1  0.75000  0.88373  0.01705  1
 Cu  Cu2  1  0.25000  0.11627  0.98295  1
 Cu  Cu3  1  0.75000  0.38373  0.48295  1
 Cu  Cu4  1  0.25000  0.61627  0.51705  1
