CIF file written using JARVIS-Tools package.
data_Sm2MnNiO6
_symmetry_space_group_name_H-M  'P2_1/c'
_cell_length_a       5.33199
_cell_length_b       5.56745
_cell_length_c       9.27552
_cell_angle_alpha    90
_cell_angle_beta     124.826
_cell_angle_gamma    90

_symmetry_Int_Tables_number  14
_chemical_formula_structural  Sm2MnNiO6
_chemical_formula_sum  Sm4Mn2Ni2O2
_cell_volume  226.03077559473454
_cell_formula_units_Z  2
loop_
  _symmetry_equiv_pos_site_id
 _symmetry_equiv_pos_as_xyz
 1  'x, y, z'
loop_
 _atom_site_type_symbol
 _atom_site_label
 _atom_site_symmetry_multiplicity
 _atom_site_fract_x
 _atom_site_fract_y
 _atom_site_fract_z
 _atom_site_fract_occupancy
 Mn  Mn1  1  0.50000  0.50000  0.50000  1
 Mn  Mn2  1  0.50000  0.00000  -0.00000  1
 Ni  Ni1  1  -0.00000  0.00000  0.50000  1
 Ni  Ni2  1  0.00000  0.50000  0.00000  1
 O  O1  1  0.74022  0.78837  0.54738  1
 O  O2  1  0.34505  0.97801  0.75629  1
 O  O3  1  0.16285  0.69561  0.45494  1
 O  O4  1  0.83715  0.30439  0.54506  1
 O  O5  1  0.34505  0.52199  0.25629  1
 O  O6  1  0.16285  0.80439  0.95494  1
 O  O7  1  0.83715  0.19561  0.04506  1
 O  O8  1  0.74022  0.71163  0.04738  1
 O  O9  1  0.25978  0.21163  0.45262  1
 O  O10  1  0.65495  0.02199  0.24371  1
 O  O11  1  0.25978  0.28837  0.95262  1
 O  O12  1  0.65495  0.47801  0.74371  1
 Sm  Sm1  1  0.23449  0.93734  0.24946  1
 Sm  Sm2  1  0.23449  0.56266  0.74946  1
 Sm  Sm3  1  0.76551  0.06266  0.75054  1
 Sm  Sm4  1  0.76551  0.43734  0.25054  1
