CIF file written using JARVIS-Tools package.
data_U2In3Sn3
_symmetry_space_group_name_H-M  'Pmmm'
_cell_length_a       4.64748
_cell_length_b       4.75704
_cell_length_c       9.04171
_cell_angle_alpha    90
_cell_angle_beta     90
_cell_angle_gamma    90

_symmetry_Int_Tables_number  47
_chemical_formula_structural  U2In3Sn3
_chemical_formula_sum  U2In3Sn3
_cell_volume  199.89646086712304
_cell_formula_units_Z  1
loop_
  _symmetry_equiv_pos_site_id
 _symmetry_equiv_pos_as_xyz
 1  'x, y, z'
loop_
 _atom_site_type_symbol
 _atom_site_label
 _atom_site_symmetry_multiplicity
 _atom_site_fract_x
 _atom_site_fract_y
 _atom_site_fract_z
 _atom_site_fract_occupancy
 In  In1  1  0.50000  0.50000  0.25338  1
 In  In2  1  0.50000  0.50000  0.74662  1
 In  In3  1  0.00000  0.50000  0.50000  1
 Sn  Sn1  1  0.00000  0.50000  0.00000  1
 Sn  Sn2  1  0.50000  0.00000  0.50000  1
 Sn  Sn3  1  0.50000  0.00000  0.00000  1
 U  U1  1  0.00000  0.00000  0.24583  1
 U  U2  1  0.00000  0.00000  0.75417  1
