CIF file written using JARVIS-Tools package.
data_Er2Co12P7
_symmetry_space_group_name_H-M  'P-6'
_cell_length_a       9.01462
_cell_length_b       9.01462
_cell_length_c       3.57769
_cell_angle_alpha    90
_cell_angle_beta     90
_cell_angle_gamma    120

_symmetry_Int_Tables_number  174
_chemical_formula_structural  Er2Co12P7
_chemical_formula_sum  Er2Co2P7
_cell_volume  251.78411704551823
_cell_formula_units_Z  1
loop_
  _symmetry_equiv_pos_site_id
 _symmetry_equiv_pos_as_xyz
 1  'x, y, z'
loop_
 _atom_site_type_symbol
 _atom_site_label
 _atom_site_symmetry_multiplicity
 _atom_site_fract_x
 _atom_site_fract_y
 _atom_site_fract_z
 _atom_site_fract_occupancy
 Co  Co1  1  0.11910  0.27298  0.00000  1
 Co  Co2  1  0.23855  0.13360  0.50000  1
 Co  Co3  1  0.72702  0.84612  0.00000  1
 Co  Co4  1  0.38237  0.94528  0.50000  1
 Co  Co5  1  0.93893  0.56358  0.00000  1
 Co  Co6  1  0.62464  0.06107  0.00000  1
 Co  Co7  1  0.86640  0.10494  0.50000  1
 Co  Co8  1  0.43642  0.37536  0.00000  1
 Co  Co9  1  0.89506  0.76145  0.50000  1
 Co  Co10  1  0.05472  0.43709  0.50000  1
 Co  Co11  1  0.15388  0.88090  0.00000  1
 Co  Co12  1  0.56291  0.61763  0.50000  1
 Er  Er1  1  0.66667  0.33333  0.50000  1
 Er  Er2  1  0.33333  0.66667  0.00000  1
 P  P1  1  0.11178  0.70885  0.50000  1
 P  P2  1  0.00000  0.00000  0.00000  1
 P  P3  1  0.29115  0.40293  0.50000  1
 P  P4  1  0.88624  0.29272  0.00000  1
 P  P5  1  0.40647  0.11376  0.00000  1
 P  P6  1  0.70728  0.59353  0.00000  1
 P  P7  1  0.59707  0.88822  0.50000  1
