CIF file written using JARVIS-Tools package.
data_Ag2SnBiS4
_symmetry_space_group_name_H-M  'I-4m2'
_cell_length_a       6.88858
_cell_length_b       6.88858
_cell_length_c       6.88858
_cell_angle_alpha    132.393
_cell_angle_beta     132.393
_cell_angle_gamma    69.6088

_symmetry_Int_Tables_number  119
_chemical_formula_structural  Ag2SnBiS4
_chemical_formula_sum  Ag2SnBiS4
_cell_volume  174.88424321013946
_cell_formula_units_Z  1
loop_
  _symmetry_equiv_pos_site_id
 _symmetry_equiv_pos_as_xyz
 1  'x, y, z'
loop_
 _atom_site_type_symbol
 _atom_site_label
 _atom_site_symmetry_multiplicity
 _atom_site_fract_x
 _atom_site_fract_y
 _atom_site_fract_z
 _atom_site_fract_occupancy
 Ag  Ag1  1  0.50000  0.50000  0.00000  1
 Ag  Ag2  1  0.25000  0.75000  0.50000  1
 Bi  Bi1  1  0.75000  0.25000  0.50000  1
 S  S1  1  0.49870  0.99870  0.50000  1
 S  S2  1  0.24728  0.24728  0.00000  1
 S  S3  1  0.00130  0.50130  0.50000  1
 S  S4  1  0.75272  0.75272  -0.00000  1
 Sn  Sn1  1  0.00000  0.00000  0.00000  1
