CIF file written using JARVIS-Tools package.
data_Sm2ReO5
_symmetry_space_group_name_H-M  'P4/n'
_cell_length_a       8.68578
_cell_length_b       8.68578
_cell_length_c       5.76519
_cell_angle_alpha    90
_cell_angle_beta     90
_cell_angle_gamma    90

_symmetry_Int_Tables_number  85
_chemical_formula_structural  Sm2ReO5
_chemical_formula_sum  Sm8Re4O20
_cell_volume  434.9425591627458
_cell_formula_units_Z  4
loop_
  _symmetry_equiv_pos_site_id
 _symmetry_equiv_pos_as_xyz
 1  'x, y, z'
loop_
 _atom_site_type_symbol
 _atom_site_label
 _atom_site_symmetry_multiplicity
 _atom_site_fract_x
 _atom_site_fract_y
 _atom_site_fract_z
 _atom_site_fract_occupancy
 O  O1  1  0.50000  0.50000  0.50000  1
 O  O2  1  0.20115  0.58982  0.39469  1
 O  O3  1  0.08982  0.29885  0.39469  1
 O  O4  1  0.91018  0.70115  0.39469  1
 O  O5  1  0.59107  0.20148  0.10202  1
 O  O6  1  0.29885  0.91018  0.60531  1
 O  O7  1  0.41018  0.20115  0.60531  1
 O  O8  1  0.58982  0.79885  0.60531  1
 O  O9  1  0.70115  0.08982  0.60531  1
 O  O10  1  0.79885  0.41018  0.39469  1
 O  O11  1  0.90893  0.29852  0.89798  1
 O  O12  1  0.79852  0.59107  0.89798  1
 O  O13  1  0.00000  0.00000  0.00000  1
 O  O14  1  0.50000  0.50000  0.00000  1
 O  O15  1  0.00000  0.00000  0.50000  1
 O  O16  1  0.29852  0.09107  0.10202  1
 O  O17  1  0.70148  0.90893  0.10202  1
 O  O18  1  0.40893  0.79852  0.10202  1
 O  O19  1  0.09107  0.70148  0.89798  1
 O  O20  1  0.20148  0.40893  0.89798  1
 Re  Re1  1  0.00000  0.50000  0.84739  1
 Re  Re2  1  0.50000  0.00000  0.15261  1
 Re  Re3  1  0.50000  0.00000  0.54612  1
 Re  Re4  1  0.00000  0.50000  0.45388  1
 Sm  Sm1  1  0.64226  0.34998  0.75050  1
 Sm  Sm2  1  0.84998  0.85774  0.75050  1
 Sm  Sm3  1  0.15002  0.14226  0.75050  1
 Sm  Sm4  1  0.35774  0.65002  0.75050  1
 Sm  Sm5  1  0.14226  0.84998  0.24950  1
 Sm  Sm6  1  0.34998  0.35774  0.24950  1
 Sm  Sm7  1  0.65002  0.64226  0.24950  1
 Sm  Sm8  1  0.85774  0.15002  0.24950  1
