CIF file written using JARVIS-Tools package.
data_TaInS2
_symmetry_space_group_name_H-M  'P6_3/mmc'
_cell_length_a       3.35475
_cell_length_b       3.35475
_cell_length_c       17.0017
_cell_angle_alpha    90
_cell_angle_beta     90
_cell_angle_gamma    120

_symmetry_Int_Tables_number  194
_chemical_formula_structural  TaInS2
_chemical_formula_sum  Ta2In2S4
_cell_volume  165.70768225793444
_cell_formula_units_Z  2
loop_
  _symmetry_equiv_pos_site_id
 _symmetry_equiv_pos_as_xyz
 1  'x, y, z'
loop_
 _atom_site_type_symbol
 _atom_site_label
 _atom_site_symmetry_multiplicity
 _atom_site_fract_x
 _atom_site_fract_y
 _atom_site_fract_z
 _atom_site_fract_occupancy
 In  In1  1  0.00000  0.00000  0.50000  1
 In  In2  1  0.00000  0.00000  0.00000  1
 S  S1  1  0.33333  0.66667  0.34239  1
 S  S2  1  0.66667  0.33333  0.65761  1
 S  S3  1  0.66667  0.33333  0.84239  1
 S  S4  1  0.33333  0.66667  0.15761  1
 Ta  Ta1  1  0.00000  0.00000  0.25000  1
 Ta  Ta2  1  0.00000  0.00000  0.75000  1
