CIF file written using JARVIS-Tools package.
data_TlCl3
_symmetry_space_group_name_H-M  'C2/m'
_cell_length_a       6.62754
_cell_length_b       6.62754
_cell_length_c       6.31094
_cell_angle_alpha    80.0977
_cell_angle_beta     80.0977
_cell_angle_gamma    119.955

_symmetry_Int_Tables_number  12
_chemical_formula_structural  TlCl3
_chemical_formula_sum  Tl2Cl6
_cell_volume  225.5416653710374
_cell_formula_units_Z  2
loop_
  _symmetry_equiv_pos_site_id
 _symmetry_equiv_pos_as_xyz
 1  'x, y, z'
loop_
 _atom_site_type_symbol
 _atom_site_label
 _atom_site_symmetry_multiplicity
 _atom_site_fract_x
 _atom_site_fract_y
 _atom_site_fract_z
 _atom_site_fract_occupancy
 Cl  Cl1  1  0.41759  0.07496  0.25198  1
 Cl  Cl2  1  0.58241  0.92504  0.74802  1
 Cl  Cl3  1  0.92504  0.58241  0.74802  1
 Cl  Cl4  1  0.07496  0.41759  0.25198  1
 Cl  Cl5  1  0.76274  0.76274  0.25689  1
 Cl  Cl6  1  0.23726  0.23726  0.74311  1
 Tl  Tl1  1  0.83361  0.16639  0.00000  1
 Tl  Tl2  1  0.16639  0.83361  0.00000  1
