CIF file written using JARVIS-Tools package.
data_YUCu4Si4
_symmetry_space_group_name_H-M  'P4/mmm'
_cell_length_a       3.97286
_cell_length_b       3.97286
_cell_length_c       9.92605
_cell_angle_alpha    90
_cell_angle_beta     90
_cell_angle_gamma    90

_symmetry_Int_Tables_number  123
_chemical_formula_structural  YUCu4Si4
_chemical_formula_sum  YUCu4Si4
_cell_volume  156.66940513392734
_cell_formula_units_Z  1
loop_
  _symmetry_equiv_pos_site_id
 _symmetry_equiv_pos_as_xyz
 1  'x, y, z'
loop_
 _atom_site_type_symbol
 _atom_site_label
 _atom_site_symmetry_multiplicity
 _atom_site_fract_x
 _atom_site_fract_y
 _atom_site_fract_z
 _atom_site_fract_occupancy
 Cu  Cu1  1  0.00000  0.50000  0.25104  1
 Cu  Cu2  1  0.50000  0.00000  0.74896  1
 Cu  Cu3  1  0.50000  0.00000  0.25104  1
 Cu  Cu4  1  0.00000  0.50000  0.74896  1
 Si  Si1  1  0.50000  0.50000  0.11535  1
 Si  Si2  1  0.00000  0.00000  0.61935  1
 Si  Si3  1  0.00000  0.00000  0.38065  1
 Si  Si4  1  0.50000  0.50000  0.88465  1
 U  U1  1  0.00000  0.00000  0.00000  1
 Y  Y1  1  0.50000  0.50000  0.50000  1
