CIF file written using JARVIS-Tools package.
data_ZnGaPS
_symmetry_space_group_name_H-M  'R3m'
_cell_length_a       6.71485
_cell_length_b       6.71485
_cell_length_c       6.71485
_cell_angle_alpha    33.4657
_cell_angle_beta     33.4656
_cell_angle_gamma    33.4657

_symmetry_Int_Tables_number  160
_chemical_formula_structural  ZnGaPS
_chemical_formula_sum  ZnGaPS
_cell_volume  81.99326813112238
_cell_formula_units_Z  1
loop_
  _symmetry_equiv_pos_site_id
 _symmetry_equiv_pos_as_xyz
 1  'x, y, z'
loop_
 _atom_site_type_symbol
 _atom_site_label
 _atom_site_symmetry_multiplicity
 _atom_site_fract_x
 _atom_site_fract_y
 _atom_site_fract_z
 _atom_site_fract_occupancy
 Ga  Ga1  1  0.49884  0.49884  0.49884  1
 P  P1  1  0.12586  0.12586  0.12586  1
 S  S1  1  0.62353  0.62353  0.62353  1
 Zn  Zn1  1  0.00177  0.00177  0.00177  1
