CIF file written using JARVIS-Tools package.
data_SmGePd
_symmetry_space_group_name_H-M  'C2/m'
_cell_length_a       5.69767
_cell_length_b       5.69767
_cell_length_c       7.23257
_cell_angle_alpha    51.6053
_cell_angle_beta     51.6052
_cell_angle_gamma    45.5787

_symmetry_Int_Tables_number  12
_chemical_formula_structural  SmGePd
_chemical_formula_sum  Sm2Ge2Pd2
_cell_volume  123.93104884109651
_cell_formula_units_Z  2
loop_
  _symmetry_equiv_pos_site_id
 _symmetry_equiv_pos_as_xyz
 1  'x, y, z'
loop_
 _atom_site_type_symbol
 _atom_site_label
 _atom_site_symmetry_multiplicity
 _atom_site_fract_x
 _atom_site_fract_y
 _atom_site_fract_z
 _atom_site_fract_occupancy
 Ge  Ge1  1  0.84136  0.84136  0.10100  1
 Ge  Ge2  1  0.15864  0.15864  0.89900  1
 Pd  Pd1  1  0.17807  0.17807  0.27669  1
 Pd  Pd2  1  0.82193  0.82193  0.72331  1
 Sm  Sm1  1  0.54452  0.54452  0.69445  1
 Sm  Sm2  1  0.45548  0.45548  0.30555  1
