CIF file written using JARVIS-Tools package.
data_Fe4O7F
_symmetry_space_group_name_H-M  'C2/c'
_cell_length_a       8.36194
_cell_length_b       5.21974
_cell_length_c       5.21974
_cell_angle_alpha    73.7128
_cell_angle_beta     87.2743
_cell_angle_gamma    87.2743

_symmetry_Int_Tables_number  15
_chemical_formula_structural  Fe4O7F
_chemical_formula_sum  Fe8O4F2
_cell_volume  218.29614992767992
_cell_formula_units_Z  2
loop_
  _symmetry_equiv_pos_site_id
 _symmetry_equiv_pos_as_xyz
 1  'x, y, z'
loop_
 _atom_site_type_symbol
 _atom_site_label
 _atom_site_symmetry_multiplicity
 _atom_site_fract_x
 _atom_site_fract_y
 _atom_site_fract_z
 _atom_site_fract_occupancy
 F  F1  1  0.25000  0.45016  0.04984  1
 F  F2  1  0.75000  0.54984  0.95016  1
 Fe  Fe1  1  0.00000  0.00000  0.00000  1
 Fe  Fe2  1  0.38031  0.11028  0.12879  1
 Fe  Fe3  1  0.11969  0.37121  0.38972  1
 Fe  Fe4  1  0.61969  0.88972  0.87121  1
 Fe  Fe5  1  0.25000  0.77244  0.72756  1
 Fe  Fe6  1  0.50000  0.50000  0.50000  1
 Fe  Fe7  1  0.88031  0.62879  0.61028  1
 Fe  Fe8  1  0.75000  0.22756  0.27244  1
 O  O1  1  0.27675  0.53083  0.52484  1
 O  O2  1  0.49985  0.19517  0.80357  1
 O  O3  1  0.75000  0.94067  0.55933  1
 O  O4  1  0.22325  0.97516  0.96917  1
 O  O5  1  0.72325  0.46917  0.47516  1
 O  O6  1  0.97191  0.22179  0.22554  1
 O  O7  1  0.02809  0.77821  0.77446  1
 O  O8  1  0.52809  0.27446  0.27821  1
 O  O9  1  0.77675  0.02484  0.03083  1
 O  O10  1  0.50015  0.80483  0.19643  1
 O  O11  1  -0.00015  0.30357  0.69517  1
 O  O12  1  0.00015  0.69643  0.30483  1
 O  O13  1  0.47191  0.72554  0.72179  1
 O  O14  1  0.25000  0.05933  0.44067  1
