CIF file written using JARVIS-Tools package.
data_Tb2AlFe3
_symmetry_space_group_name_H-M  'R-3m'
_cell_length_a       5.17349
_cell_length_b       5.17349
_cell_length_c       5.17349
_cell_angle_alpha    60.3491
_cell_angle_beta     60.3491
_cell_angle_gamma    60.3491

_symmetry_Int_Tables_number  166
_chemical_formula_structural  Tb2AlFe3
_chemical_formula_sum  Tb2AlFe3
_cell_volume  98.68541967711387
_cell_formula_units_Z  1
loop_
  _symmetry_equiv_pos_site_id
 _symmetry_equiv_pos_as_xyz
 1  'x, y, z'
loop_
 _atom_site_type_symbol
 _atom_site_label
 _atom_site_symmetry_multiplicity
 _atom_site_fract_x
 _atom_site_fract_y
 _atom_site_fract_z
 _atom_site_fract_occupancy
 Al  Al1  1  0.00000  0.00000  0.00000  1
 Fe  Fe1  1  -0.00000  0.50000  -0.00000  1
 Fe  Fe2  1  0.50000  -0.00000  -0.00000  1
 Fe  Fe3  1  0.00000  0.00000  0.50000  1
 Tb  Tb1  1  0.62241  0.62241  0.62241  1
 Tb  Tb2  1  0.37759  0.37759  0.37759  1
