CIF file written using JARVIS-Tools package.
data_HgRhF6
_symmetry_space_group_name_H-M  'R-3'
_cell_length_a       5.73373
_cell_length_b       5.73373
_cell_length_c       5.73373
_cell_angle_alpha    53.2258
_cell_angle_beta     53.2258
_cell_angle_gamma    53.2257

_symmetry_Int_Tables_number  148
_chemical_formula_structural  HgRhF6
_chemical_formula_sum  HgRhF6
_cell_volume  112.14196928417553
_cell_formula_units_Z  1
loop_
  _symmetry_equiv_pos_site_id
 _symmetry_equiv_pos_as_xyz
 1  'x, y, z'
loop_
 _atom_site_type_symbol
 _atom_site_label
 _atom_site_symmetry_multiplicity
 _atom_site_fract_x
 _atom_site_fract_y
 _atom_site_fract_z
 _atom_site_fract_occupancy
 F  F1  1  0.39903  0.04087  0.78962  1
 F  F2  1  0.04087  0.78962  0.39903  1
 F  F3  1  0.21038  0.60097  0.95913  1
 F  F4  1  0.95913  0.21038  0.60097  1
 F  F5  1  0.60097  0.95913  0.21038  1
 F  F6  1  0.78962  0.39903  0.04087  1
 Hg  Hg1  1  0.50000  0.50000  0.50000  1
 Rh  Rh1  1  0.00000  0.00000  0.00000  1
