CIF file written using JARVIS-Tools package.
data_LiO8
_symmetry_space_group_name_H-M  'P1'
_cell_length_a       4.96026
_cell_length_b       4.93775
_cell_length_c       5.93579
_cell_angle_alpha    53.2039
_cell_angle_beta     53.286
_cell_angle_gamma    60.9487

_symmetry_Int_Tables_number  1
_chemical_formula_structural  LiO8
_chemical_formula_sum  LiO8
_cell_volume  91.46423146058336
_cell_formula_units_Z  1
loop_
  _symmetry_equiv_pos_site_id
 _symmetry_equiv_pos_as_xyz
 1  'x, y, z'
loop_
 _atom_site_type_symbol
 _atom_site_label
 _atom_site_symmetry_multiplicity
 _atom_site_fract_x
 _atom_site_fract_y
 _atom_site_fract_z
 _atom_site_fract_occupancy
 Li  Li1  1  0.43726  0.70805  0.30420  1
 O  O1  1  0.78431  0.35362  0.82539  1
 O  O2  1  0.10286  0.27990  0.70634  1
 O  O3  1  0.11096  0.65997  0.23052  1
 O  O4  1  0.78729  0.72996  0.36916  1
 O  O5  1  0.78515  0.23926  0.34283  1
 O  O6  1  0.10313  0.84852  0.69218  1
 O  O7  1  0.10831  0.19043  0.20698  1
 O  O8  1  0.78074  0.91885  0.81049  1
