CIF file written using JARVIS-Tools package.
data_NaLiCO3
_symmetry_space_group_name_H-M  'P-6'
_cell_length_a       14.4062
_cell_length_b       14.4062
_cell_length_c       3.27406
_cell_angle_alpha    90
_cell_angle_beta     90
_cell_angle_gamma    120

_symmetry_Int_Tables_number  174
_chemical_formula_structural  NaLiCO3
_chemical_formula_sum  Na9Li9C9O27
_cell_volume  588.4561340331575
_cell_formula_units_Z  9
loop_
  _symmetry_equiv_pos_site_id
 _symmetry_equiv_pos_as_xyz
 1  'x, y, z'
loop_
 _atom_site_type_symbol
 _atom_site_label
 _atom_site_symmetry_multiplicity
 _atom_site_fract_x
 _atom_site_fract_y
 _atom_site_fract_z
 _atom_site_fract_occupancy
 C  C1  1  0.00000  0.00000  0.00000  1
 C  C2  1  0.66667  0.33333  0.00000  1
 C  C3  1  0.33655  0.34524  0.00000  1
 C  C4  1  0.68183  0.66823  0.50000  1
 C  C5  1  0.65476  0.99131  0.00000  1
 C  C6  1  0.98640  0.31817  0.50000  1
 C  C7  1  0.00869  0.66345  0.00000  1
 C  C8  1  0.33177  0.01360  0.50000  1
 C  C9  1  0.33333  0.66667  0.00000  1
 Li  Li1  1  0.25132  0.82039  0.00000  1
 Li  Li2  1  0.57954  0.47529  0.00000  1
 Li  Li3  1  0.17961  0.43092  0.00000  1
 Li  Li4  1  0.87568  0.77259  0.00000  1
 Li  Li5  1  0.56908  0.74868  0.00000  1
 Li  Li6  1  0.52471  0.10425  0.00000  1
 Li  Li7  1  0.89575  0.42046  0.00000  1
 Li  Li8  1  0.89691  0.12432  0.00000  1
 Li  Li9  1  0.22741  0.10309  0.00000  1
 Na  Na1  1  0.09432  0.87022  0.50000  1
 Na  Na2  1  0.74327  0.19422  0.50000  1
 Na  Na3  1  0.45096  0.25673  0.50000  1
 Na  Na4  1  0.45255  0.87937  0.50000  1
 Na  Na5  1  0.12978  0.22411  0.50000  1
 Na  Na6  1  0.77589  0.90568  0.50000  1
 Na  Na7  1  0.80578  0.54904  0.50000  1
 Na  Na8  1  0.42681  0.54745  0.50000  1
 Na  Na9  1  0.12063  0.57319  0.50000  1
 O  O1  1  0.30107  0.91205  0.50000  1
 O  O2  1  0.91562  0.34899  0.50000  1
 O  O3  1  0.78321  0.73983  0.50000  1
 O  O4  1  0.26017  0.04338  0.50000  1
 O  O5  1  0.58291  0.34475  0.00000  1
 O  O6  1  0.00286  0.57047  0.00000  1
 O  O7  1  0.34014  0.75970  0.00000  1
 O  O8  1  0.61098  0.69893  0.50000  1
 O  O9  1  0.10165  0.75042  0.00000  1
 O  O10  1  0.56761  0.99714  0.00000  1
 O  O11  1  0.92209  0.66959  0.00000  1
 O  O12  1  0.64877  0.89835  0.00000  1
 O  O13  1  0.76185  0.41709  0.00000  1
 O  O14  1  0.33041  0.25250  0.00000  1
 O  O15  1  0.00328  0.91155  0.00000  1
 O  O16  1  0.95662  0.21679  0.50000  1
 O  O17  1  0.90827  0.99672  0.00000  1
 O  O18  1  0.74750  0.07791  0.00000  1
 O  O19  1  0.24958  0.35123  0.00000  1
 O  O20  1  0.65101  0.56662  0.50000  1
 O  O21  1  0.41956  0.65986  0.00000  1
 O  O22  1  0.43338  0.08438  0.50000  1
 O  O23  1  0.08795  0.38902  0.50000  1
 O  O24  1  0.08845  0.09173  0.00000  1
 O  O25  1  0.24030  0.58044  0.00000  1
 O  O26  1  0.65525  0.23815  0.00000  1
 O  O27  1  0.42953  0.43239  0.00000  1
