CIF file written using JARVIS-Tools package.
data_LiBF4
_symmetry_space_group_name_H-M  'P3_121'
_cell_length_a       4.78195
_cell_length_b       4.78195
_cell_length_c       10.9196
_cell_angle_alpha    90
_cell_angle_beta     90
_cell_angle_gamma    120

_symmetry_Int_Tables_number  152
_chemical_formula_structural  LiBF4
_chemical_formula_sum  Li3B3F2
_cell_volume  216.2454057099888
_cell_formula_units_Z  3
loop_
  _symmetry_equiv_pos_site_id
 _symmetry_equiv_pos_as_xyz
 1  'x, y, z'
loop_
 _atom_site_type_symbol
 _atom_site_label
 _atom_site_symmetry_multiplicity
 _atom_site_fract_x
 _atom_site_fract_y
 _atom_site_fract_z
 _atom_site_fract_occupancy
 B  B1  1  0.44235  0.44235  0.50000  1
 B  B2  1  0.55765  0.00000  0.83333  1
 B  B3  1  0.00000  0.55765  0.16667  1
 F  F1  1  0.13895  0.40349  0.53288  1
 F  F2  1  0.08215  0.42704  0.06581  1
 F  F3  1  0.34489  0.91785  0.73248  1
 F  F4  1  0.86105  0.26454  0.80045  1
 F  F5  1  0.91785  0.34489  0.26752  1
 F  F6  1  0.57296  0.65511  0.39914  1
 F  F7  1  0.42704  0.08215  0.93419  1
 F  F8  1  0.73546  0.59651  0.13379  1
 F  F9  1  0.65511  0.57296  0.60086  1
 F  F10  1  0.26454  0.86105  0.19955  1
 F  F11  1  0.40349  0.13895  0.46712  1
 F  F12  1  0.59651  0.73546  0.86621  1
 Li  Li1  1  0.45093  0.45093  0.00000  1
 Li  Li2  1  0.00000  0.54907  0.66667  1
 Li  Li3  1  0.54907  0.00000  0.33333  1
