CIF file written using JARVIS-Tools package.
data_NaAu3
_symmetry_space_group_name_H-M  'P6_3/mmc'
_cell_length_a       5.79397
_cell_length_b       5.79396
_cell_length_c       5.03687
_cell_angle_alpha    90
_cell_angle_beta     90
_cell_angle_gamma    120

_symmetry_Int_Tables_number  194
_chemical_formula_structural  NaAu3
_chemical_formula_sum  Na2Au6
_cell_volume  146.4346296071724
_cell_formula_units_Z  2
loop_
  _symmetry_equiv_pos_site_id
 _symmetry_equiv_pos_as_xyz
 1  'x, y, z'
loop_
 _atom_site_type_symbol
 _atom_site_label
 _atom_site_symmetry_multiplicity
 _atom_site_fract_x
 _atom_site_fract_y
 _atom_site_fract_z
 _atom_site_fract_occupancy
 Au  Au1  1  0.83331  0.16669  0.75000  1
 Au  Au2  1  0.33339  0.16669  0.75000  1
 Au  Au3  1  0.83331  0.66661  0.75000  1
 Au  Au4  1  0.16669  0.83331  0.25000  1
 Au  Au5  1  0.66661  0.83331  0.25000  1
 Au  Au6  1  0.16669  0.33339  0.25000  1
 Na  Na1  1  0.66667  0.33333  0.25000  1
 Na  Na2  1  0.33333  0.66667  0.75000  1
