CIF file written using JARVIS-Tools package.
data_K2NaCl3
_symmetry_space_group_name_H-M  'P-3m1'
_cell_length_a       4.24911
_cell_length_b       4.2491
_cell_length_c       10.5672
_cell_angle_alpha    90
_cell_angle_beta     90
_cell_angle_gamma    120

_symmetry_Int_Tables_number  164
_chemical_formula_structural  K2NaCl3
_chemical_formula_sum  K2NaCl3
_cell_volume  165.2285148008222
_cell_formula_units_Z  1
loop_
  _symmetry_equiv_pos_site_id
 _symmetry_equiv_pos_as_xyz
 1  'x, y, z'
loop_
 _atom_site_type_symbol
 _atom_site_label
 _atom_site_symmetry_multiplicity
 _atom_site_fract_x
 _atom_site_fract_y
 _atom_site_fract_z
 _atom_site_fract_occupancy
 Cl  Cl1  1  0.33333  0.66667  0.14324  1
 Cl  Cl2  1  0.66667  0.33333  0.85676  1
 Cl  Cl3  1  0.00000  0.00000  0.50000  1
 K  K1  1  0.33333  0.66667  0.67814  1
 K  K2  1  0.66667  0.33333  0.32186  1
 Na  Na1  1  0.00000  0.00000  0.00000  1
