CIF file written using JARVIS-Tools package.
data_Nd2MnFe3Si4
_symmetry_space_group_name_H-M  'P-4m2'
_cell_length_a       3.99821
_cell_length_b       3.99821
_cell_length_c       9.99034
_cell_angle_alpha    90
_cell_angle_beta     90
_cell_angle_gamma    90

_symmetry_Int_Tables_number  115
_chemical_formula_structural  Nd2MnFe3Si4
_chemical_formula_sum  Nd2MnFe3Si4
_cell_volume  159.7021469593921
_cell_formula_units_Z  1
loop_
  _symmetry_equiv_pos_site_id
 _symmetry_equiv_pos_as_xyz
 1  'x, y, z'
loop_
 _atom_site_type_symbol
 _atom_site_label
 _atom_site_symmetry_multiplicity
 _atom_site_fract_x
 _atom_site_fract_y
 _atom_site_fract_z
 _atom_site_fract_occupancy
 Fe  Fe1  1  0.50000  0.00000  0.75000  1
 Fe  Fe2  1  0.50000  0.00000  0.25000  1
 Fe  Fe3  1  0.00000  0.50000  0.75000  1
 Mn  Mn1  1  0.00000  0.50000  0.25000  1
 Nd  Nd1  1  0.00000  0.00000  0.99406  1
 Nd  Nd2  1  0.50000  0.50000  0.50594  1
 Si  Si1  1  0.50000  0.50000  0.12839  1
 Si  Si2  1  0.00000  0.00000  0.64157  1
 Si  Si3  1  0.00000  0.00000  0.37161  1
 Si  Si4  1  0.50000  0.50000  0.85843  1
