CIF file written using JARVIS-Tools package.
data_LaPrC4
_symmetry_space_group_name_H-M  'P4/mmm'
_cell_length_a       3.91036
_cell_length_b       3.91036
_cell_length_c       6.54035
_cell_angle_alpha    90
_cell_angle_beta     90
_cell_angle_gamma    90

_symmetry_Int_Tables_number  123
_chemical_formula_structural  LaPrC4
_chemical_formula_sum  LaPrC4
_cell_volume  100.00778862316584
_cell_formula_units_Z  1
loop_
  _symmetry_equiv_pos_site_id
 _symmetry_equiv_pos_as_xyz
 1  'x, y, z'
loop_
 _atom_site_type_symbol
 _atom_site_label
 _atom_site_symmetry_multiplicity
 _atom_site_fract_x
 _atom_site_fract_y
 _atom_site_fract_z
 _atom_site_fract_occupancy
 C  C1  1  0.00000  0.00000  0.59862  1
 C  C2  1  0.50000  0.50000  0.09878  1
 C  C3  1  0.50000  0.50000  0.90122  1
 C  C4  1  0.00000  0.00000  0.40138  1
 La  La1  1  0.50000  0.50000  0.50000  1
 Pr  Pr1  1  0.00000  0.00000  0.00000  1
