CIF file written using JARVIS-Tools package.
data_V2SiO4
_symmetry_space_group_name_H-M  'Pnma'
_cell_length_a       4.81764
_cell_length_b       6.17535
_cell_length_c       10.5226
_cell_angle_alpha    90
_cell_angle_beta     90
_cell_angle_gamma    90

_symmetry_Int_Tables_number  62
_chemical_formula_structural  V2SiO4
_chemical_formula_sum  V8Si4O6
_cell_volume  313.0554207403745
_cell_formula_units_Z  4
loop_
  _symmetry_equiv_pos_site_id
 _symmetry_equiv_pos_as_xyz
 1  'x, y, z'
loop_
 _atom_site_type_symbol
 _atom_site_label
 _atom_site_symmetry_multiplicity
 _atom_site_fract_x
 _atom_site_fract_y
 _atom_site_fract_z
 _atom_site_fract_occupancy
 O  O1  1  0.26941  0.75000  0.59594  1
 O  O2  1  0.79051  0.75000  0.45111  1
 O  O3  1  0.22231  0.46442  0.33703  1
 O  O4  1  0.77769  0.53558  0.66297  1
 O  O5  1  0.73059  0.25000  0.40406  1
 O  O6  1  0.76941  0.25000  0.90406  1
 O  O7  1  0.72231  0.96442  0.16297  1
 O  O8  1  0.77769  0.96442  0.66297  1
 O  O9  1  0.70949  0.75000  0.95111  1
 O  O10  1  0.29051  0.25000  0.04889  1
 O  O11  1  0.27769  0.03558  0.83703  1
 O  O12  1  0.27769  0.46442  0.83703  1
 O  O13  1  0.23059  0.75000  0.09594  1
 O  O14  1  0.20949  0.25000  0.54889  1
 O  O15  1  0.22231  0.03558  0.33703  1
 O  O16  1  0.72231  0.53558  0.16297  1
 Si  Si1  1  0.92997  0.75000  0.59707  1
 Si  Si2  1  0.57003  0.75000  0.09707  1
 Si  Si3  1  0.42997  0.25000  0.90293  1
 Si  Si4  1  0.07003  0.25000  0.40293  1
 V  V1  1  0.00592  0.75000  0.27564  1
 V  V2  1  0.49408  0.75000  0.77564  1
 V  V3  1  0.50000  0.00000  0.50000  1
 V  V4  1  0.50000  0.50000  0.50000  1
 V  V5  1  0.50592  0.25000  0.22436  1
 V  V6  1  0.99408  0.25000  0.72436  1
 V  V7  1  0.00000  0.50000  0.00000  1
 V  V8  1  0.00000  0.00000  0.00000  1
