CIF file written using JARVIS-Tools package.
data_NiN2F14
_symmetry_space_group_name_H-M  'I4/m'
_cell_length_a       6.65128
_cell_length_b       6.65128
_cell_length_c       6.65128
_cell_angle_alpha    91.2379
_cell_angle_beta     119.288
_cell_angle_gamma    119.288

_symmetry_Int_Tables_number  87
_chemical_formula_structural  NiN2F14
_chemical_formula_sum  NiN2F4
_cell_volume  210.25208306252867
_cell_formula_units_Z  1
loop_
  _symmetry_equiv_pos_site_id
 _symmetry_equiv_pos_as_xyz
 1  'x, y, z'
loop_
 _atom_site_type_symbol
 _atom_site_label
 _atom_site_symmetry_multiplicity
 _atom_site_fract_x
 _atom_site_fract_y
 _atom_site_fract_z
 _atom_site_fract_occupancy
 F  F1  1  0.00000  0.19450  0.19450  1
 F  F2  1  0.27891  0.25524  0.68893  1
 F  F3  1  0.27891  0.58998  0.02367  1
 F  F4  1  0.43369  0.02367  0.74476  1
 F  F5  1  0.56631  0.31107  0.58998  1
 F  F6  1  0.72109  0.74476  0.31107  1
 F  F7  1  0.56631  0.97633  0.25524  1
 F  F8  1  0.43369  0.68893  0.41002  1
 F  F9  1  -0.00000  0.80550  0.80550  1
 F  F10  1  0.10522  0.86878  0.23645  1
 F  F11  1  0.89478  0.13122  0.76355  1
 F  F12  1  0.36767  0.23645  0.13122  1
 F  F13  1  0.72109  0.41002  0.97633  1
 F  F14  1  0.63233  0.76355  0.86878  1
 N  N1  1  0.50000  0.25000  0.75000  1
 N  N2  1  0.50000  0.75000  0.25000  1
 Ni  Ni1  1  0.00000  0.00000  0.00000  1
