CIF file written using JARVIS-Tools package.
data_Dy4CdCo
_symmetry_space_group_name_H-M  'F-43m'
_cell_length_a       9.4065
_cell_length_b       9.4065
_cell_length_c       9.4065
_cell_angle_alpha    60
_cell_angle_beta     60
_cell_angle_gamma    60

_symmetry_Int_Tables_number  216
_chemical_formula_structural  Dy4CdCo
_chemical_formula_sum  Dy6Cd4Co4
_cell_volume  588.5312009502421
_cell_formula_units_Z  4
loop_
  _symmetry_equiv_pos_site_id
 _symmetry_equiv_pos_as_xyz
 1  'x, y, z'
loop_
 _atom_site_type_symbol
 _atom_site_label
 _atom_site_symmetry_multiplicity
 _atom_site_fract_x
 _atom_site_fract_y
 _atom_site_fract_z
 _atom_site_fract_occupancy
 Cd  Cd1  1  0.25673  0.58109  0.58109  1
 Cd  Cd2  1  0.58109  0.58109  0.25673  1
 Cd  Cd3  1  0.58109  0.25673  0.58109  1
 Cd  Cd4  1  0.58109  0.58109  0.58109  1
 Co  Co1  1  0.14094  0.57719  0.14094  1
 Co  Co2  1  0.14094  0.14094  0.57719  1
 Co  Co3  1  0.57719  0.14094  0.14094  1
 Co  Co4  1  0.14094  0.14094  0.14094  1
 Dy  Dy1  1  0.18841  0.81159  0.18841  1
 Dy  Dy2  1  0.81159  0.18841  0.81159  1
 Dy  Dy3  1  0.81159  0.81159  0.18841  1
 Dy  Dy4  1  0.56224  0.56224  0.93776  1
 Dy  Dy5  1  0.34665  0.34665  0.34665  1
 Dy  Dy6  1  0.56224  0.93776  0.93776  1
 Dy  Dy7  1  0.93776  0.56224  0.56224  1
 Dy  Dy8  1  0.93776  0.93776  0.56224  1
 Dy  Dy9  1  0.93776  0.56224  0.93776  1
 Dy  Dy10  1  0.81159  0.18841  0.18841  1
 Dy  Dy11  1  0.56224  0.93776  0.56224  1
 Dy  Dy12  1  0.18841  0.18841  0.81159  1
 Dy  Dy13  1  0.34665  0.96006  0.34665  1
 Dy  Dy14  1  0.18841  0.81159  0.81159  1
 Dy  Dy15  1  0.34665  0.34665  0.96006  1
 Dy  Dy16  1  0.96006  0.34665  0.34665  1
