CIF file written using JARVIS-Tools package.
data_Pr2AlSi
_symmetry_space_group_name_H-M  'Amm2'
_cell_length_a       6.12417
_cell_length_b       6.12416
_cell_length_c       4.09734
_cell_angle_alpha    90
_cell_angle_beta     90
_cell_angle_gamma    136.731

_symmetry_Int_Tables_number  38
_chemical_formula_structural  Pr2AlSi
_chemical_formula_sum  Pr2AlSi
_cell_volume  105.33191811173148
_cell_formula_units_Z  1
loop_
  _symmetry_equiv_pos_site_id
 _symmetry_equiv_pos_as_xyz
 1  'x, y, z'
loop_
 _atom_site_type_symbol
 _atom_site_label
 _atom_site_symmetry_multiplicity
 _atom_site_fract_x
 _atom_site_fract_y
 _atom_site_fract_z
 _atom_site_fract_occupancy
 Al  Al1  1  0.06714  0.93286  0.00000  1
 Pr  Pr1  1  0.35830  0.64170  0.00000  1
 Pr  Pr2  1  0.64481  0.35519  0.50000  1
 Si  Si1  1  0.92975  0.07025  0.50000  1
