CIF file written using JARVIS-Tools package.
data_U2Si4W3
_symmetry_space_group_name_H-M  'P2_1/c'
_cell_length_a       6.79416
_cell_length_b       6.92161
_cell_length_c       6.90075
_cell_angle_alpha    90
_cell_angle_beta     109.887
_cell_angle_gamma    90

_symmetry_Int_Tables_number  14
_chemical_formula_structural  U2Si4W3
_chemical_formula_sum  U4Si8W6
_cell_volume  305.1648760606821
_cell_formula_units_Z  2
loop_
  _symmetry_equiv_pos_site_id
 _symmetry_equiv_pos_as_xyz
 1  'x, y, z'
loop_
 _atom_site_type_symbol
 _atom_site_label
 _atom_site_symmetry_multiplicity
 _atom_site_fract_x
 _atom_site_fract_y
 _atom_site_fract_z
 _atom_site_fract_occupancy
 Si  Si1  1  0.86689  0.13450  0.50305  1
 Si  Si2  1  0.63311  0.63450  0.49695  1
 Si  Si3  1  0.13311  0.86550  0.49695  1
 Si  Si4  1  0.36689  0.36550  0.50305  1
 Si  Si5  1  0.13146  0.45445  0.90987  1
 Si  Si6  1  0.36854  0.95445  0.09013  1
 Si  Si7  1  0.63146  0.04555  0.90987  1
 Si  Si8  1  0.86854  0.54555  0.09013  1
 U  U1  1  0.44426  0.66459  0.81387  1
 U  U2  1  0.94426  0.83541  0.81387  1
 U  U3  1  0.55574  0.33541  0.18613  1
 U  U4  1  0.05574  0.16459  0.18613  1
 W  W1  1  0.74630  0.33942  0.75523  1
 W  W2  1  0.25370  0.66058  0.24477  1
 W  W3  1  0.24630  0.16058  0.75523  1
 W  W4  1  -0.00000  0.50000  0.50000  1
 W  W5  1  0.50000  0.00000  0.50000  1
 W  W6  1  0.75370  0.83942  0.24477  1
