CIF file written using JARVIS-Tools package.
data_MnZnO3
_symmetry_space_group_name_H-M  'R-3'
_cell_length_a       5.44163
_cell_length_b       5.44162
_cell_length_c       5.44163
_cell_angle_alpha    54.6245
_cell_angle_beta     54.6245
_cell_angle_gamma    54.6245

_symmetry_Int_Tables_number  148
_chemical_formula_structural  MnZnO3
_chemical_formula_sum  Mn2Zn2O6
_cell_volume  99.66661079817366
_cell_formula_units_Z  2
loop_
  _symmetry_equiv_pos_site_id
 _symmetry_equiv_pos_as_xyz
 1  'x, y, z'
loop_
 _atom_site_type_symbol
 _atom_site_label
 _atom_site_symmetry_multiplicity
 _atom_site_fract_x
 _atom_site_fract_y
 _atom_site_fract_z
 _atom_site_fract_occupancy
 Mn  Mn1  1  0.34154  0.34154  0.34154  1
 Mn  Mn2  1  0.65846  0.65846  0.65846  1
 O  O1  1  0.06261  0.71637  0.45172  1
 O  O2  1  0.45172  0.06261  0.71637  1
 O  O3  1  0.71637  0.45172  0.06261  1
 O  O4  1  0.28363  0.54828  0.93739  1
 O  O5  1  0.54828  0.93739  0.28363  1
 O  O6  1  0.93739  0.28363  0.54828  1
 Zn  Zn1  1  0.13336  0.13336  0.13336  1
 Zn  Zn2  1  0.86664  0.86664  0.86664  1
