CIF file written using JARVIS-Tools package.
data_NbVN2
_symmetry_space_group_name_H-M  'R-3m'
_cell_length_a       5.27533
_cell_length_b       5.27533
_cell_length_c       5.27532
_cell_angle_alpha    33.4824
_cell_angle_beta     33.4824
_cell_angle_gamma    33.4824

_symmetry_Int_Tables_number  166
_chemical_formula_structural  NbVN2
_chemical_formula_sum  NbVN2
_cell_volume  39.793670730191444
_cell_formula_units_Z  1
loop_
  _symmetry_equiv_pos_site_id
 _symmetry_equiv_pos_as_xyz
 1  'x, y, z'
loop_
 _atom_site_type_symbol
 _atom_site_label
 _atom_site_symmetry_multiplicity
 _atom_site_fract_x
 _atom_site_fract_y
 _atom_site_fract_z
 _atom_site_fract_occupancy
 N  N1  1  0.24300  0.24300  0.24300  1
 N  N2  1  0.75700  0.75700  0.75700  1
 Nb  Nb1  1  0.00000  0.00000  0.00000  1
 V  V1  1  0.50000  0.50000  0.50000  1
