CIF file written using JARVIS-Tools package.
data_LiFeN
_symmetry_space_group_name_H-M  'Amm2'
_cell_length_a       3.10672
_cell_length_b       3.08642
_cell_length_c       4.09227
_cell_angle_alpha    90
_cell_angle_beta     90
_cell_angle_gamma    119.937

_symmetry_Int_Tables_number  38
_chemical_formula_structural  LiFeN
_chemical_formula_sum  LiFeN
_cell_volume  34.003917685513876
_cell_formula_units_Z  1
loop_
  _symmetry_equiv_pos_site_id
 _symmetry_equiv_pos_as_xyz
 1  'x, y, z'
loop_
 _atom_site_type_symbol
 _atom_site_label
 _atom_site_symmetry_multiplicity
 _atom_site_fract_x
 _atom_site_fract_y
 _atom_site_fract_z
 _atom_site_fract_occupancy
 Fe  Fe1  1  0.00160  0.00144  0.50000  1
 Li  Li1  1  0.66532  0.33211  0.00000  1
 N  N1  1  0.66644  0.33324  0.50000  1
