CIF file written using JARVIS-Tools package.
data_Nb5N2O2
_symmetry_space_group_name_H-M  'Cm'
_cell_length_a       5.42969
_cell_length_b       5.42969
_cell_length_c       6.84487
_cell_angle_alpha    51.5328
_cell_angle_beta     51.5328
_cell_angle_gamma    47.5388

_symmetry_Int_Tables_number  8
_chemical_formula_structural  Nb5N2O2
_chemical_formula_sum  Nb5N2O2
_cell_volume  109.19309436502004
_cell_formula_units_Z  1
loop_
  _symmetry_equiv_pos_site_id
 _symmetry_equiv_pos_as_xyz
 1  'x, y, z'
loop_
 _atom_site_type_symbol
 _atom_site_label
 _atom_site_symmetry_multiplicity
 _atom_site_fract_x
 _atom_site_fract_y
 _atom_site_fract_z
 _atom_site_fract_occupancy
 N  N1  1  0.48554  0.48554  0.04021  1
 N  N2  1  0.69681  0.69681  0.21018  1
 Nb  Nb1  1  0.58188  0.58188  0.62186  1
 Nb  Nb2  1  0.77148  0.77148  0.82184  1
 Nb  Nb3  1  0.99938  0.99938  0.97901  1
 Nb  Nb4  1  0.22236  0.22236  0.13915  1
 Nb  Nb5  1  0.39978  0.39978  0.45148  1
 O  O1  1  0.90771  0.90771  0.38475  1
 O  O2  1  0.13506  0.13506  0.55153  1
