CIF file written using JARVIS-Tools package.
data_MnCrSb2
_symmetry_space_group_name_H-M  'P-3m1'
_cell_length_a       4.0396
_cell_length_b       4.0396
_cell_length_c       5.67037
_cell_angle_alpha    90
_cell_angle_beta     90
_cell_angle_gamma    120

_symmetry_Int_Tables_number  164
_chemical_formula_structural  MnCrSb2
_chemical_formula_sum  MnCrSb2
_cell_volume  80.13419920333432
_cell_formula_units_Z  1
loop_
  _symmetry_equiv_pos_site_id
 _symmetry_equiv_pos_as_xyz
 1  'x, y, z'
loop_
 _atom_site_type_symbol
 _atom_site_label
 _atom_site_symmetry_multiplicity
 _atom_site_fract_x
 _atom_site_fract_y
 _atom_site_fract_z
 _atom_site_fract_occupancy
 Cr  Cr1  1  0.00000  0.00000  0.50000  1
 Mn  Mn1  1  0.00000  0.00000  0.00000  1
 Sb  Sb1  1  0.33333  0.66667  0.24885  1
 Sb  Sb2  1  0.66667  0.33333  0.75115  1
