CIF file written using JARVIS-Tools package.
data_KFe2As2
_symmetry_space_group_name_H-M  'I4/mmm'
_cell_length_a       7.43679
_cell_length_b       7.43679
_cell_length_c       7.4368
_cell_angle_alpha    150.824
_cell_angle_beta     150.824
_cell_angle_gamma    41.7329

_symmetry_Int_Tables_number  139
_chemical_formula_structural  KFe2As2
_chemical_formula_sum  KFe2As2
_cell_volume  97.51948153212665
_cell_formula_units_Z  1
loop_
  _symmetry_equiv_pos_site_id
 _symmetry_equiv_pos_as_xyz
 1  'x, y, z'
loop_
 _atom_site_type_symbol
 _atom_site_label
 _atom_site_symmetry_multiplicity
 _atom_site_fract_x
 _atom_site_fract_y
 _atom_site_fract_z
 _atom_site_fract_occupancy
 As  As1  1  0.64954  0.64954  -0.00000  1
 As  As2  1  0.35046  0.35046  0.00000  1
 Fe  Fe1  1  0.75000  0.25000  0.50000  1
 Fe  Fe2  1  0.25000  0.75000  0.50000  1
 K  K1  1  0.00000  0.00000  0.00000  1
