CIF file written using JARVIS-Tools package.
data_NaNO2
_symmetry_space_group_name_H-M  'P2_1/m'
_cell_length_a       3.52808
_cell_length_b       5.42952
_cell_length_c       5.51556
_cell_angle_alpha    90.0376
_cell_angle_beta     90.5278
_cell_angle_gamma    90.0259

_symmetry_Int_Tables_number  11
_chemical_formula_structural  NaNO2
_chemical_formula_sum  Na2N2O4
_cell_volume  105.65045425618419
_cell_formula_units_Z  2
loop_
  _symmetry_equiv_pos_site_id
 _symmetry_equiv_pos_as_xyz
 1  'x, y, z'
loop_
 _atom_site_type_symbol
 _atom_site_label
 _atom_site_symmetry_multiplicity
 _atom_site_fract_x
 _atom_site_fract_y
 _atom_site_fract_z
 _atom_site_fract_occupancy
 N  N1  1  0.75093  0.74996  0.65684  1
 N  N2  1  0.24907  0.25004  0.34316  1
 Na  Na1  1  0.75082  0.74999  0.20329  1
 Na  Na2  1  0.24918  0.25001  0.79671  1
 O  O1  1  0.25117  0.05302  0.21747  1
 O  O2  1  0.25083  0.44685  0.21739  1
 O  O3  1  0.74883  0.94698  0.78253  1
 O  O4  1  0.74917  0.55315  0.78261  1
