CIF file written using JARVIS-Tools package.
data_Sb2O3
_symmetry_space_group_name_H-M  'Pmmn'
_cell_length_a       3.35604
_cell_length_b       7.7399
_cell_length_c       13.271
_cell_angle_alpha    90
_cell_angle_beta     90
_cell_angle_gamma    90

_symmetry_Int_Tables_number  59
_chemical_formula_structural  Sb2O3
_chemical_formula_sum  Sb8O2
_cell_volume  344.7200785234018
_cell_formula_units_Z  4
loop_
  _symmetry_equiv_pos_site_id
 _symmetry_equiv_pos_as_xyz
 1  'x, y, z'
loop_
 _atom_site_type_symbol
 _atom_site_label
 _atom_site_symmetry_multiplicity
 _atom_site_fract_x
 _atom_site_fract_y
 _atom_site_fract_z
 _atom_site_fract_occupancy
 O  O1  1  0.74996  0.31014  0.42683  1
 O  O2  1  0.25004  0.18986  0.92683  1
 O  O3  1  0.25004  0.68986  0.57317  1
 O  O4  1  0.75004  0.31014  0.07317  1
 O  O5  1  0.25000  0.29091  0.25000  1
 O  O6  1  0.74996  0.81014  0.07317  1
 O  O7  1  0.25000  0.79091  0.25000  1
 O  O8  1  0.75000  0.70909  0.75000  1
 O  O9  1  0.75004  0.81014  0.42683  1
 O  O10  1  0.24996  0.18986  0.57317  1
 O  O11  1  0.75000  0.20909  0.75000  1
 O  O12  1  0.24996  0.68986  0.92683  1
 Sb  Sb1  1  0.24995  0.66881  0.11583  1
 Sb  Sb2  1  0.24995  0.16881  0.38417  1
 Sb  Sb3  1  0.74995  0.83119  0.88417  1
 Sb  Sb4  1  0.75005  0.83119  0.61583  1
 Sb  Sb5  1  0.75005  0.33119  0.88417  1
 Sb  Sb6  1  0.25005  0.16881  0.11583  1
 Sb  Sb7  1  0.25005  0.66881  0.38417  1
 Sb  Sb8  1  0.74995  0.33119  0.61583  1
