CIF file written using JARVIS-Tools package.
data_Na2CdS2O8
_symmetry_space_group_name_H-M  'C2/c'
_cell_length_a       6.50817
_cell_length_b       6.50817
_cell_length_c       8.64963
_cell_angle_alpha    71.551
_cell_angle_beta     71.551
_cell_angle_gamma    78.683

_symmetry_Int_Tables_number  15
_chemical_formula_structural  Na2CdS2O8
_chemical_formula_sum  Na4Cd2S4O6
_cell_volume  327.79039798547484
_cell_formula_units_Z  2
loop_
  _symmetry_equiv_pos_site_id
 _symmetry_equiv_pos_as_xyz
 1  'x, y, z'
loop_
 _atom_site_type_symbol
 _atom_site_label
 _atom_site_symmetry_multiplicity
 _atom_site_fract_x
 _atom_site_fract_y
 _atom_site_fract_z
 _atom_site_fract_occupancy
 Cd  Cd1  1  0.93373  0.06627  0.25000  1
 Cd  Cd2  1  0.06627  0.93373  0.75000  1
 Na  Na1  1  0.30746  0.41938  0.43633  1
 Na  Na2  1  0.69254  0.58062  0.56367  1
 Na  Na3  1  0.58062  0.69254  0.06367  1
 Na  Na4  1  0.41938  0.30746  0.93633  1
 O  O1  1  0.58002  0.12276  0.24857  1
 O  O2  1  0.77152  0.95022  0.55326  1
 O  O3  1  0.74539  0.48761  0.86704  1
 O  O4  1  0.41998  0.87724  0.75143  1
 O  O5  1  0.95022  0.77152  0.05326  1
 O  O6  1  0.25461  0.51239  0.13296  1
 O  O7  1  0.68714  0.99591  0.83440  1
 O  O8  1  0.51239  0.25461  0.63296  1
 O  O9  1  0.00409  0.31286  0.66560  1
 O  O10  1  0.12276  0.58002  0.74857  1
 O  O11  1  0.31286  0.00409  0.16560  1
 O  O12  1  0.48761  0.74539  0.36704  1
 O  O13  1  0.99591  0.68714  0.33440  1
 O  O14  1  0.04978  0.22848  0.94674  1
 O  O15  1  0.87724  0.41998  0.25143  1
 O  O16  1  0.22848  0.04978  0.44674  1
 S  S1  1  0.02295  0.59619  0.18899  1
 S  S2  1  0.40381  0.97705  0.31101  1
 S  S3  1  0.59619  0.02295  0.68899  1
 S  S4  1  0.97705  0.40381  0.81101  1
