CIF file written using JARVIS-Tools package.
data_Sc7CBr12
_symmetry_space_group_name_H-M  'R3'
_cell_length_a       8.45575
_cell_length_b       8.45575
_cell_length_c       8.45575
_cell_angle_alpha    107.597
_cell_angle_beta     107.597
_cell_angle_gamma    107.597

_symmetry_Int_Tables_number  146
_chemical_formula_structural  Sc7CBr12
_chemical_formula_sum  Sc7CBr2
_cell_volume  495.07776397692527
_cell_formula_units_Z  1
loop_
  _symmetry_equiv_pos_site_id
 _symmetry_equiv_pos_as_xyz
 1  'x, y, z'
loop_
 _atom_site_type_symbol
 _atom_site_label
 _atom_site_symmetry_multiplicity
 _atom_site_fract_x
 _atom_site_fract_y
 _atom_site_fract_z
 _atom_site_fract_occupancy
 Br  Br1  1  0.14813  0.46930  0.38915  1
 Br  Br2  1  0.69184  0.07843  0.23195  1
 Br  Br3  1  0.23195  0.69184  0.07843  1
 Br  Br4  1  0.84486  0.54104  0.61675  1
 Br  Br5  1  0.61675  0.84486  0.54104  1
 Br  Br6  1  0.54104  0.61675  0.84486  1
 Br  Br7  1  0.31417  0.92448  0.77619  1
 Br  Br8  1  0.77619  0.31417  0.92448  1
 Br  Br9  1  0.07843  0.23195  0.69184  1
 Br  Br10  1  0.46930  0.38915  0.14813  1
 Br  Br11  1  0.38915  0.14813  0.46930  1
 Br  Br12  1  0.92448  0.77619  0.31417  1
 C  C1  1  0.00056  0.00056  0.00056  1
 Sc  Sc1  1  0.03767  0.10394  0.29908  1
 Sc  Sc2  1  0.48296  0.48296  0.48296  1
 Sc  Sc3  1  0.97640  0.90879  0.70850  1
 Sc  Sc4  1  0.70850  0.97640  0.90879  1
 Sc  Sc5  1  0.90879  0.70850  0.97640  1
 Sc  Sc6  1  0.29908  0.03767  0.10394  1
 Sc  Sc7  1  0.10394  0.29908  0.03767  1
