CIF file written using JARVIS-Tools package.
data_LaCuSi2Ni
_symmetry_space_group_name_H-M  'I-4m2'
_cell_length_a       5.67809
_cell_length_b       5.67809
_cell_length_c       5.67809
_cell_angle_alpha    137.053
_cell_angle_beta     137.053
_cell_angle_gamma    62.3564

_symmetry_Int_Tables_number  119
_chemical_formula_structural  LaCuSi2Ni
_chemical_formula_sum  LaCuSi2Ni
_cell_volume  83.95495267285887
_cell_formula_units_Z  1
loop_
  _symmetry_equiv_pos_site_id
 _symmetry_equiv_pos_as_xyz
 1  'x, y, z'
loop_
 _atom_site_type_symbol
 _atom_site_label
 _atom_site_symmetry_multiplicity
 _atom_site_fract_x
 _atom_site_fract_y
 _atom_site_fract_z
 _atom_site_fract_occupancy
 Cu  Cu1  1  0.25000  0.75000  0.50000  1
 La  La1  1  0.00000  0.00000  0.00000  1
 Ni  Ni1  1  0.75000  0.25000  0.50000  1
 Si  Si1  1  0.62776  0.62776  0.00000  1
 Si  Si2  1  0.37224  0.37224  -0.00000  1
