CIF file written using JARVIS-Tools package.
data_Mg4B3Ir2
_symmetry_space_group_name_H-M  'C2/m'
_cell_length_a       4.92695
_cell_length_b       4.92696
_cell_length_c       6.92064
_cell_angle_alpha    67.7183
_cell_angle_beta     67.7183
_cell_angle_gamma    58.5954

_symmetry_Int_Tables_number  12
_chemical_formula_structural  Mg4B3Ir2
_chemical_formula_sum  Mg4B3Ir2
_cell_volume  129.12626086486816
_cell_formula_units_Z  1
loop_
  _symmetry_equiv_pos_site_id
 _symmetry_equiv_pos_as_xyz
 1  'x, y, z'
loop_
 _atom_site_type_symbol
 _atom_site_label
 _atom_site_symmetry_multiplicity
 _atom_site_fract_x
 _atom_site_fract_y
 _atom_site_fract_z
 _atom_site_fract_occupancy
 B  B1  1  0.65413  0.34587  0.00000  1
 B  B2  1  0.30808  0.69192  -0.00000  1
 B  B3  1  0.98110  0.01890  0.50000  1
 Ir  Ir1  1  0.99562  0.03340  0.78065  1
 Ir  Ir2  1  0.96660  0.00438  0.21935  1
 Mg  Mg1  1  0.28805  0.32582  0.84223  1
 Mg  Mg2  1  0.67418  0.71195  0.15777  1
 Mg  Mg3  1  0.28478  0.32254  0.36001  1
 Mg  Mg4  1  0.67746  0.71522  0.63999  1
