CIF file written using JARVIS-Tools package.
data_Ca2ZnGe2O7
_symmetry_space_group_name_H-M  'P-42_1m'
_cell_length_a       8.01541
_cell_length_b       8.01541
_cell_length_c       5.19755
_cell_angle_alpha    90
_cell_angle_beta     90
_cell_angle_gamma    90

_symmetry_Int_Tables_number  113
_chemical_formula_structural  Ca2ZnGe2O7
_chemical_formula_sum  Ca4Zn2Ge4O4
_cell_volume  333.92553795901944
_cell_formula_units_Z  2
loop_
  _symmetry_equiv_pos_site_id
 _symmetry_equiv_pos_as_xyz
 1  'x, y, z'
loop_
 _atom_site_type_symbol
 _atom_site_label
 _atom_site_symmetry_multiplicity
 _atom_site_fract_x
 _atom_site_fract_y
 _atom_site_fract_z
 _atom_site_fract_occupancy
 Ca  Ca1  1  0.33441  0.83441  0.50776  1
 Ca  Ca2  1  0.16559  0.33441  0.49224  1
 Ca  Ca3  1  0.83441  0.66559  0.49224  1
 Ca  Ca4  1  0.66559  0.16559  0.50776  1
 Ge  Ge1  1  0.14559  0.64559  0.94399  1
 Ge  Ge2  1  0.35441  0.14559  0.05601  1
 Ge  Ge3  1  0.64559  0.85441  0.05601  1
 Ge  Ge4  1  0.85441  0.35441  0.94399  1
 O  O1  1  0.67240  0.41365  0.77133  1
 O  O2  1  0.13929  0.63929  0.27940  1
 O  O3  1  0.41365  0.32760  0.22867  1
 O  O4  1  0.58635  0.67240  0.22867  1
 O  O5  1  0.91365  0.17240  0.77133  1
 O  O6  1  0.32760  0.58635  0.77133  1
 O  O7  1  0.17240  0.08635  0.22867  1
 O  O8  1  0.50000  0.00000  0.20460  1
 O  O9  1  0.86071  0.36071  0.27940  1
 O  O10  1  0.63929  0.86071  0.72060  1
 O  O11  1  0.82760  0.91365  0.22867  1
 O  O12  1  0.00000  0.50000  0.79540  1
 O  O13  1  0.08635  0.82760  0.77133  1
 O  O14  1  0.36071  0.13929  0.72060  1
 Zn  Zn1  1  0.00000  0.00000  0.00000  1
 Zn  Zn2  1  0.50000  0.50000  0.00000  1
