CIF file written using JARVIS-Tools package.
data_Zn4CoSe5
_symmetry_space_group_name_H-M  'Cm'
_cell_length_a       6.9615
_cell_length_b       6.9615
_cell_length_c       9.85116
_cell_angle_alpha    61.8424
_cell_angle_beta     61.8424
_cell_angle_gamma    33.5647

_symmetry_Int_Tables_number  8
_chemical_formula_structural  Zn4CoSe5
_chemical_formula_sum  Zn4CoSe5
_cell_volume  229.6615371374175
_cell_formula_units_Z  1
loop_
  _symmetry_equiv_pos_site_id
 _symmetry_equiv_pos_as_xyz
 1  'x, y, z'
loop_
 _atom_site_type_symbol
 _atom_site_label
 _atom_site_symmetry_multiplicity
 _atom_site_fract_x
 _atom_site_fract_y
 _atom_site_fract_z
 _atom_site_fract_occupancy
 Co  Co1  1  -0.00098  -0.00098  0.00096  1
 Se  Se1  1  0.80085  0.80085  0.54855  1
 Se  Se2  1  0.40577  0.40577  0.14079  1
 Se  Se3  1  0.99825  0.99825  0.75815  1
 Se  Se4  1  0.60124  0.60124  0.35077  1
 Se  Se5  1  0.19409  0.19409  0.95186  1
 Zn  Zn1  1  0.59854  0.59854  0.60375  1
 Zn  Zn2  1  0.20241  0.20241  0.19798  1
 Zn  Zn3  1  0.79845  0.79845  0.80172  1
 Zn  Zn4  1  0.40137  0.40137  0.39549  1
