CIF file written using JARVIS-Tools package.
data_Nb4C3
_symmetry_space_group_name_H-M  'R3m'
_cell_length_a       10.4586
_cell_length_b       10.4586
_cell_length_c       10.4586
_cell_angle_alpha    17.3798
_cell_angle_beta     17.3798
_cell_angle_gamma    17.3798

_symmetry_Int_Tables_number  160
_chemical_formula_structural  Nb4C3
_chemical_formula_sum  Nb4C3
_cell_volume  89.07416553232011
_cell_formula_units_Z  1
loop_
  _symmetry_equiv_pos_site_id
 _symmetry_equiv_pos_as_xyz
 1  'x, y, z'
loop_
 _atom_site_type_symbol
 _atom_site_label
 _atom_site_symmetry_multiplicity
 _atom_site_fract_x
 _atom_site_fract_y
 _atom_site_fract_z
 _atom_site_fract_occupancy
 C  C1  1  0.50327  0.50327  0.50327  1
 C  C2  1  0.99552  0.99552  0.99552  1
 C  C3  1  0.08450  0.08450  0.08450  1
 Nb  Nb1  1  0.37357  0.37357  0.37357  1
 Nb  Nb2  1  0.62446  0.62446  0.62446  1
 Nb  Nb3  1  0.20932  0.20932  0.20932  1
 Nb  Nb4  1  0.79436  0.79436  0.79436  1
