CIF file written using JARVIS-Tools package.
data_Mn2OF3
_symmetry_space_group_name_H-M  'C2/m'
_cell_length_a       9.36788
_cell_length_b       5.70761
_cell_length_c       5.70761
_cell_angle_alpha    71.6101
_cell_angle_beta     86.978
_cell_angle_gamma    86.978

_symmetry_Int_Tables_number  12
_chemical_formula_structural  Mn2OF3
_chemical_formula_sum  Mn8O4F2
_cell_volume  288.9791848102691
_cell_formula_units_Z  4
loop_
  _symmetry_equiv_pos_site_id
 _symmetry_equiv_pos_as_xyz
 1  'x, y, z'
loop_
 _atom_site_type_symbol
 _atom_site_label
 _atom_site_symmetry_multiplicity
 _atom_site_fract_x
 _atom_site_fract_y
 _atom_site_fract_z
 _atom_site_fract_occupancy
 F  F1  1  0.26679  0.42416  0.04261  1
 F  F2  1  0.00000  0.30671  0.69329  1
 F  F3  1  0.54206  0.28028  0.28028  1
 F  F4  1  0.26650  0.51096  0.51096  1
 F  F5  1  0.77865  0.02573  0.02573  1
 F  F6  1  0.22135  0.97427  0.97427  1
 F  F7  1  0.73350  0.48904  0.48904  1
 F  F8  1  0.45794  0.71972  0.71972  1
 F  F9  1  0.73321  0.95739  0.57584  1
 F  F10  1  0.73321  0.57584  0.95739  1
 F  F11  1  0.00000  0.69329  0.30671  1
 F  F12  1  0.26679  0.04261  0.42416  1
 Mn  Mn1  1  0.88390  0.64707  0.64707  1
 Mn  Mn2  1  0.00000  0.00000  0.00000  1
 Mn  Mn3  1  0.11610  0.35293  0.35293  1
 Mn  Mn4  1  0.39301  0.11242  0.11242  1
 Mn  Mn5  1  0.23241  0.74188  0.74188  1
 Mn  Mn6  1  0.50000  0.50000  0.50000  1
 Mn  Mn7  1  0.76759  0.25812  0.25812  1
 Mn  Mn8  1  0.60699  0.88758  0.88758  1
 O  O1  1  0.50000  0.80596  0.19404  1
 O  O2  1  0.02492  0.79217  0.79217  1
 O  O3  1  0.50000  0.19404  0.80596  1
 O  O4  1  0.97508  0.20783  0.20783  1
