CIF file written using JARVIS-Tools package.
data_RbGeBiS4
_symmetry_space_group_name_H-M  'P2_1/c'
_cell_length_a       6.63465
_cell_length_b       6.81108
_cell_length_c       17.8446
_cell_angle_alpha    90
_cell_angle_beta     108.308
_cell_angle_gamma    90

_symmetry_Int_Tables_number  14
_chemical_formula_structural  RbGeBiS4
_chemical_formula_sum  Rb4Ge4Bi4S6
_cell_volume  765.5622604819696
_cell_formula_units_Z  4
loop_
  _symmetry_equiv_pos_site_id
 _symmetry_equiv_pos_as_xyz
 1  'x, y, z'
loop_
 _atom_site_type_symbol
 _atom_site_label
 _atom_site_symmetry_multiplicity
 _atom_site_fract_x
 _atom_site_fract_y
 _atom_site_fract_z
 _atom_site_fract_occupancy
 Bi  Bi1  1  0.76167  0.28467  0.72068  1
 Bi  Bi2  1  0.23833  0.78467  0.77932  1
 Bi  Bi3  1  0.23833  0.71533  0.27932  1
 Bi  Bi4  1  0.76167  0.21533  0.22068  1
 Ge  Ge1  1  0.20638  0.23068  0.65865  1
 Ge  Ge2  1  0.79362  0.73068  0.84135  1
 Ge  Ge3  1  0.79362  0.76932  0.34135  1
 Ge  Ge4  1  0.20638  0.26932  0.15865  1
 Rb  Rb1  1  0.27513  0.74676  0.53387  1
 Rb  Rb2  1  0.72487  0.25324  0.46613  1
 Rb  Rb3  1  0.72487  0.24676  0.96613  1
 Rb  Rb4  1  0.27513  0.75324  0.03387  1
 S  S1  1  0.41705  0.32638  0.28319  1
 S  S2  1  0.96975  0.51224  0.13581  1
 S  S3  1  0.41705  0.17362  0.78319  1
 S  S4  1  0.00240  0.00155  0.14420  1
 S  S5  1  0.00240  0.49845  0.64420  1
 S  S6  1  -0.00240  -0.00155  0.85580  1
 S  S7  1  0.58690  0.74207  0.91818  1
 S  S8  1  -0.00240  0.50155  0.35580  1
 S  S9  1  0.41310  0.24207  0.58182  1
 S  S10  1  0.03025  0.01224  0.36419  1
 S  S11  1  0.58690  0.75793  0.41818  1
 S  S12  1  0.58295  0.67362  0.71681  1
 S  S13  1  0.41310  0.25793  0.08182  1
 S  S14  1  0.58295  0.82638  0.21681  1
 S  S15  1  0.96975  0.98776  0.63581  1
 S  S16  1  0.03025  0.48776  0.86419  1
