CIF file written using JARVIS-Tools package.
data_Sr3P6N8O6
_symmetry_space_group_name_H-M  'P-3'
_cell_length_a       7.33364
_cell_length_b       7.33364
_cell_length_c       6.05668
_cell_angle_alpha    90
_cell_angle_beta     90
_cell_angle_gamma    120

_symmetry_Int_Tables_number  147
_chemical_formula_structural  Sr3P6N8O6
_chemical_formula_sum  Sr3P6N8O6
_cell_volume  282.1012340111517
_cell_formula_units_Z  1
loop_
  _symmetry_equiv_pos_site_id
 _symmetry_equiv_pos_as_xyz
 1  'x, y, z'
loop_
 _atom_site_type_symbol
 _atom_site_label
 _atom_site_symmetry_multiplicity
 _atom_site_fract_x
 _atom_site_fract_y
 _atom_site_fract_z
 _atom_site_fract_occupancy
 N  N1  1  0.33333  0.66667  0.08127  1
 N  N2  1  0.97224  0.66969  0.10603  1
 N  N3  1  0.33031  0.30255  0.10603  1
 N  N4  1  0.66969  0.69745  0.89397  1
 N  N5  1  0.69745  0.02776  0.10603  1
 N  N6  1  0.02776  0.33031  0.89397  1
 N  N7  1  0.66667  0.33333  0.91873  1
 N  N8  1  0.30255  0.97224  0.89397  1
 O  O1  1  0.29103  0.92745  0.33985  1
 O  O2  1  0.36358  0.29103  0.66015  1
 O  O3  1  0.07255  0.36358  0.33985  1
 O  O4  1  0.92745  0.63642  0.66015  1
 O  O5  1  0.63642  0.70897  0.33985  1
 O  O6  1  0.70897  0.07255  0.66015  1
 P  P1  1  0.22222  0.82440  0.11107  1
 P  P2  1  0.77778  0.17560  0.88893  1
 P  P3  1  0.17560  0.39782  0.11107  1
 P  P4  1  0.39782  0.22222  0.88893  1
 P  P5  1  0.60218  0.77778  0.11107  1
 P  P6  1  0.82440  0.60218  0.88893  1
 Sr  Sr1  1  0.33333  0.66667  0.61664  1
 Sr  Sr2  1  0.00000  0.00000  0.50000  1
 Sr  Sr3  1  0.66667  0.33333  0.38336  1
