CIF file written using JARVIS-Tools package.
data_Ba3Ca
_symmetry_space_group_name_H-M  'P6_3/mmc'
_cell_length_a       8.51229
_cell_length_b       8.51229
_cell_length_c       6.97622
_cell_angle_alpha    90
_cell_angle_beta     90
_cell_angle_gamma    120

_symmetry_Int_Tables_number  194
_chemical_formula_structural  Ba3Ca
_chemical_formula_sum  Ba6Ca2
_cell_volume  437.7680708248743
_cell_formula_units_Z  2
loop_
  _symmetry_equiv_pos_site_id
 _symmetry_equiv_pos_as_xyz
 1  'x, y, z'
loop_
 _atom_site_type_symbol
 _atom_site_label
 _atom_site_symmetry_multiplicity
 _atom_site_fract_x
 _atom_site_fract_y
 _atom_site_fract_z
 _atom_site_fract_occupancy
 Ba  Ba1  1  0.16836  0.33672  0.25000  1
 Ba  Ba2  1  0.66328  0.83164  0.25000  1
 Ba  Ba3  1  0.16836  0.83164  0.25000  1
 Ba  Ba4  1  0.83164  0.66328  0.75000  1
 Ba  Ba5  1  0.33672  0.16836  0.75000  1
 Ba  Ba6  1  0.83164  0.16836  0.75000  1
 Ca  Ca1  1  0.33333  0.66667  0.75000  1
 Ca  Ca2  1  0.66667  0.33333  0.25000  1
