CIF file written using JARVIS-Tools package.
data_Sb3Ir
_symmetry_space_group_name_H-M  'Im-3'
_cell_length_a       8.1497
_cell_length_b       8.1497
_cell_length_c       8.1497
_cell_angle_alpha    109.471
_cell_angle_beta     109.471
_cell_angle_gamma    109.471

_symmetry_Int_Tables_number  204
_chemical_formula_structural  Sb3Ir
_chemical_formula_sum  Sb2Ir4
_cell_volume  416.6803813319997
_cell_formula_units_Z  4
loop_
  _symmetry_equiv_pos_site_id
 _symmetry_equiv_pos_as_xyz
 1  'x, y, z'
loop_
 _atom_site_type_symbol
 _atom_site_label
 _atom_site_symmetry_multiplicity
 _atom_site_fract_x
 _atom_site_fract_y
 _atom_site_fract_z
 _atom_site_fract_occupancy
 Ir  Ir1  1  0.50000  0.00000  -0.00000  1
 Ir  Ir2  1  0.00000  0.00000  0.50000  1
 Ir  Ir3  1  0.00000  0.50000  0.00000  1
 Ir  Ir4  1  0.50000  0.50000  0.50000  1
 Sb  Sb1  1  0.50701  0.84640  0.66061  1
 Sb  Sb2  1  0.18579  0.84640  0.33939  1
 Sb  Sb3  1  0.81421  0.15360  0.66061  1
 Sb  Sb4  1  0.15360  0.33939  0.49299  1
 Sb  Sb5  1  0.49299  0.15360  0.33939  1
 Sb  Sb6  1  0.15360  0.66061  0.81421  1
 Sb  Sb7  1  0.33939  0.18579  0.84640  1
 Sb  Sb8  1  0.84640  0.66061  0.50701  1
 Sb  Sb9  1  0.66061  0.81421  0.15360  1
 Sb  Sb10  1  0.84640  0.33939  0.18579  1
 Sb  Sb11  1  0.66061  0.50701  0.84640  1
 Sb  Sb12  1  0.33939  0.49299  0.15360  1
