CIF file written using JARVIS-Tools package.
data_Li4CO4
_symmetry_space_group_name_H-M  'I-42m'
_cell_length_a       4.91008
_cell_length_b       4.91008
_cell_length_c       4.91007
_cell_angle_alpha    129.594
_cell_angle_beta     129.579
_cell_angle_gamma    74.0687

_symmetry_Int_Tables_number  121
_chemical_formula_structural  Li4CO4
_chemical_formula_sum  Li4CO4
_cell_volume  68.55892287423559
_cell_formula_units_Z  1
loop_
  _symmetry_equiv_pos_site_id
 _symmetry_equiv_pos_as_xyz
 1  'x, y, z'
loop_
 _atom_site_type_symbol
 _atom_site_label
 _atom_site_symmetry_multiplicity
 _atom_site_fract_x
 _atom_site_fract_y
 _atom_site_fract_z
 _atom_site_fract_occupancy
 C  C1  1  0.00000  0.00000  0.00000  1
 Li  Li1  1  0.84379  0.44508  0.00117  1
 Li  Li2  1  0.55609  0.55492  0.39871  1
 Li  Li3  1  0.44391  0.84262  0.99883  1
 Li  Li4  1  0.15621  0.15738  0.60129  1
 O  O1  1  0.08706  0.69805  0.99989  1
 O  O2  1  0.69816  0.08717  0.00011  1
 O  O3  1  0.91294  0.91283  0.61099  1
 O  O4  1  0.30184  0.30195  0.38901  1
