CIF file written using JARVIS-Tools package.
data_TiNbB2
_symmetry_space_group_name_H-M  'Amm2'
_cell_length_a       4.63895
_cell_length_b       4.63895
_cell_length_c       3.10292
_cell_angle_alpha    90
_cell_angle_beta     90
_cell_angle_gamma    138.305

_symmetry_Int_Tables_number  38
_chemical_formula_structural  TiNbB2
_chemical_formula_sum  TiNbB2
_cell_volume  44.41596627299985
_cell_formula_units_Z  1
loop_
  _symmetry_equiv_pos_site_id
 _symmetry_equiv_pos_as_xyz
 1  'x, y, z'
loop_
 _atom_site_type_symbol
 _atom_site_label
 _atom_site_symmetry_multiplicity
 _atom_site_fract_x
 _atom_site_fract_y
 _atom_site_fract_z
 _atom_site_fract_occupancy
 B  B1  1  0.44161  0.55839  0.50000  1
 B  B2  1  0.55594  0.44406  0.00000  1
 Nb  Nb1  1  0.14721  0.85279  0.50000  1
 Ti  Ti1  1  0.85525  0.14475  0.00000  1
