CIF file written using JARVIS-Tools package.
data_LiCoSiO4
_symmetry_space_group_name_H-M  'Pc'
_cell_length_a       5.00816
_cell_length_b       5.38524
_cell_length_c       7.93372
_cell_angle_alpha    90
_cell_angle_beta     127.978
_cell_angle_gamma    90

_symmetry_Int_Tables_number  7
_chemical_formula_structural  LiCoSiO4
_chemical_formula_sum  Li2Co2Si2O8
_cell_volume  168.66486100085694
_cell_formula_units_Z  2
loop_
  _symmetry_equiv_pos_site_id
 _symmetry_equiv_pos_as_xyz
 1  'x, y, z'
loop_
 _atom_site_type_symbol
 _atom_site_label
 _atom_site_symmetry_multiplicity
 _atom_site_fract_x
 _atom_site_fract_y
 _atom_site_fract_z
 _atom_site_fract_occupancy
 Co  Co1  1  0.01825  0.17104  -0.01277  1
 Co  Co2  1  0.01825  0.82896  0.48723  1
 Li  Li1  1  0.26934  0.33518  0.73831  1
 Li  Li2  1  0.26934  0.66482  0.23831  1
 O  O1  1  0.40932  0.66620  0.71291  1
 O  O2  1  0.67614  0.21359  0.01800  1
 O  O3  1  0.04980  0.16677  0.45705  1
 O  O4  1  0.90891  0.61349  0.26833  1
 O  O5  1  0.40932  0.33380  0.21291  1
 O  O6  1  0.67614  0.78641  0.51800  1
 O  O7  1  0.04980  0.83323  0.95705  1
 O  O8  1  0.90891  0.38651  0.76833  1
 Si  Si1  1  0.76361  0.67131  0.73985  1
 Si  Si2  1  0.76361  0.32869  0.23985  1
