CIF file written using JARVIS-Tools package.
data_MgSc2Ga2
_symmetry_space_group_name_H-M  'P4/mbm'
_cell_length_a       7.15257
_cell_length_b       7.15257
_cell_length_c       3.87146
_cell_angle_alpha    90
_cell_angle_beta     90
_cell_angle_gamma    90

_symmetry_Int_Tables_number  127
_chemical_formula_structural  MgSc2Ga2
_chemical_formula_sum  Mg2Sc4Ga4
_cell_volume  198.0607387677828
_cell_formula_units_Z  2
loop_
  _symmetry_equiv_pos_site_id
 _symmetry_equiv_pos_as_xyz
 1  'x, y, z'
loop_
 _atom_site_type_symbol
 _atom_site_label
 _atom_site_symmetry_multiplicity
 _atom_site_fract_x
 _atom_site_fract_y
 _atom_site_fract_z
 _atom_site_fract_occupancy
 Ga  Ga1  1  0.62601  0.87399  0.00000  1
 Ga  Ga2  1  0.12601  0.62601  0.00000  1
 Ga  Ga3  1  0.87399  0.37399  0.00000  1
 Ga  Ga4  1  0.37399  0.12601  0.00000  1
 Mg  Mg1  1  0.50000  0.50000  0.00000  1
 Mg  Mg2  1  0.00000  0.00000  0.00000  1
 Sc  Sc1  1  0.17305  0.32695  0.50000  1
 Sc  Sc2  1  0.32695  0.82695  0.50000  1
 Sc  Sc3  1  0.82695  0.67305  0.50000  1
 Sc  Sc4  1  0.67305  0.17305  0.50000  1
