CIF file written using JARVIS-Tools package.
data_Sr2SnS3F2
_symmetry_space_group_name_H-M  'Pnma'
_cell_length_a       5.96628
_cell_length_b       5.95132
_cell_length_c       19.0083
_cell_angle_alpha    90
_cell_angle_beta     90
_cell_angle_gamma    90

_symmetry_Int_Tables_number  62
_chemical_formula_structural  Sr2SnS3F2
_chemical_formula_sum  Sr8Sn4S2F8
_cell_volume  674.9320443429236
_cell_formula_units_Z  4
loop_
  _symmetry_equiv_pos_site_id
 _symmetry_equiv_pos_as_xyz
 1  'x, y, z'
loop_
 _atom_site_type_symbol
 _atom_site_label
 _atom_site_symmetry_multiplicity
 _atom_site_fract_x
 _atom_site_fract_y
 _atom_site_fract_z
 _atom_site_fract_occupancy
 F  F1  1  0.50079  0.74747  0.00034  1
 F  F2  1  0.49921  0.25253  0.50034  1
 F  F3  1  0.49921  0.25253  0.99966  1
 F  F4  1  0.99921  0.24747  0.50034  1
 F  F5  1  0.00079  0.75253  0.00034  1
 F  F6  1  0.50079  0.74747  0.49966  1
 F  F7  1  0.00079  0.75253  0.49966  1
 F  F8  1  0.99921  0.24747  0.99966  1
 S  S1  1  0.75542  0.01903  0.25000  1
 S  S2  1  0.74280  0.51226  0.36825  1
 S  S3  1  0.24280  0.98774  0.13175  1
 S  S4  1  0.75720  0.01226  0.63175  1
 S  S5  1  0.25542  0.48097  0.25000  1
 S  S6  1  0.25720  0.48774  0.86825  1
 S  S7  1  0.24458  0.98097  0.75000  1
 S  S8  1  0.74280  0.51226  0.13175  1
 S  S9  1  0.24280  0.98774  0.36825  1
 S  S10  1  0.25720  0.48774  0.63175  1
 S  S11  1  0.74458  0.51903  0.75000  1
 S  S12  1  0.75720  0.01226  0.86825  1
 Sn  Sn1  1  0.34304  0.06900  0.25000  1
 Sn  Sn2  1  0.84304  0.43100  0.25000  1
 Sn  Sn3  1  0.65696  0.93100  0.75000  1
 Sn  Sn4  1  0.15696  0.56900  0.75000  1
 Sr  Sr1  1  0.75323  0.50268  0.92612  1
 Sr  Sr2  1  0.25323  0.99732  0.57388  1
 Sr  Sr3  1  0.74677  0.00268  0.07388  1
 Sr  Sr4  1  0.24677  0.49732  0.42612  1
 Sr  Sr5  1  0.75323  0.50268  0.57388  1
 Sr  Sr6  1  0.25323  0.99732  0.92612  1
 Sr  Sr7  1  0.74677  0.00268  0.42612  1
 Sr  Sr8  1  0.24677  0.49732  0.07388  1
