CIF file written using JARVIS-Tools package.
data_ZnAgF3
_symmetry_space_group_name_H-M  'R-3'
_cell_length_a       5.47326
_cell_length_b       5.47326
_cell_length_c       6.32095
_cell_angle_alpha    64.3453
_cell_angle_beta     64.3452
_cell_angle_gamma    60

_symmetry_Int_Tables_number  148
_chemical_formula_structural  ZnAgF3
_chemical_formula_sum  Zn2Ag2F6
_cell_volume  142.0227922208838
_cell_formula_units_Z  2
loop_
  _symmetry_equiv_pos_site_id
 _symmetry_equiv_pos_as_xyz
 1  'x, y, z'
loop_
 _atom_site_type_symbol
 _atom_site_label
 _atom_site_symmetry_multiplicity
 _atom_site_fract_x
 _atom_site_fract_y
 _atom_site_fract_z
 _atom_site_fract_occupancy
 Ag  Ag1  1  0.85840  0.85840  0.42481  1
 Ag  Ag2  1  0.14160  0.14160  0.57519  1
 F  F1  1  0.45794  0.69296  0.78957  1
 F  F2  1  0.05953  0.45794  0.78957  1
 F  F3  1  0.69296  0.05953  0.78957  1
 F  F4  1  0.54206  0.30704  0.21043  1
 F  F5  1  0.30704  0.94047  0.21043  1
 F  F6  1  0.94047  0.54206  0.21043  1
 Zn  Zn1  1  0.65890  0.65889  0.02332  1
 Zn  Zn2  1  0.34111  0.34111  0.97668  1
