CIF file written using JARVIS-Tools package.
data_MnAl6
_symmetry_space_group_name_H-M  'Cmcm'
_cell_length_a       4.97772
_cell_length_b       4.97773
_cell_length_c       8.87437
_cell_angle_alpha    90
_cell_angle_beta     90
_cell_angle_gamma    98.6794

_symmetry_Int_Tables_number  63
_chemical_formula_structural  MnAl6
_chemical_formula_sum  Mn2Al2
_cell_volume  217.36890888920695
_cell_formula_units_Z  2
loop_
  _symmetry_equiv_pos_site_id
 _symmetry_equiv_pos_as_xyz
 1  'x, y, z'
loop_
 _atom_site_type_symbol
 _atom_site_label
 _atom_site_symmetry_multiplicity
 _atom_site_fract_x
 _atom_site_fract_y
 _atom_site_fract_z
 _atom_site_fract_occupancy
 Al  Al1  1  0.03401  0.39897  0.75000  1
 Al  Al2  1  0.96599  0.60103  0.25000  1
 Al  Al3  1  0.32673  0.67327  0.00000  1
 Al  Al4  1  0.67327  0.32673  0.50000  1
 Al  Al5  1  0.67327  0.32673  0.00000  1
 Al  Al6  1  0.32673  0.67327  0.50000  1
 Al  Al7  1  0.13865  0.13865  0.10141  1
 Al  Al8  1  0.86135  0.86135  0.60141  1
 Al  Al9  1  0.13865  0.13865  0.39859  1
 Al  Al10  1  0.86135  0.86135  0.89859  1
 Al  Al11  1  0.60103  0.96599  0.25000  1
 Al  Al12  1  0.39897  0.03401  0.75000  1
 Mn  Mn1  1  0.54510  0.54510  0.75000  1
 Mn  Mn2  1  0.45490  0.45490  0.25000  1
