CIF file written using JARVIS-Tools package.
data_TaVCN
_symmetry_space_group_name_H-M  'R3m'
_cell_length_a       5.27993
_cell_length_b       5.27994
_cell_length_c       5.27994
_cell_angle_alpha    33.8051
_cell_angle_beta     33.8051
_cell_angle_gamma    33.8051

_symmetry_Int_Tables_number  160
_chemical_formula_structural  TaVCN
_chemical_formula_sum  TaVCN
_cell_volume  40.60058331820005
_cell_formula_units_Z  1
loop_
  _symmetry_equiv_pos_site_id
 _symmetry_equiv_pos_as_xyz
 1  'x, y, z'
loop_
 _atom_site_type_symbol
 _atom_site_label
 _atom_site_symmetry_multiplicity
 _atom_site_fract_x
 _atom_site_fract_y
 _atom_site_fract_z
 _atom_site_fract_occupancy
 C  C1  1  0.99482  0.99482  0.99482  1
 N  N1  1  0.50028  0.50028  0.50028  1
 Ta  Ta1  1  0.74601  0.74601  0.74601  1
 V  V1  1  0.25889  0.25889  0.25889  1
