CIF file written using JARVIS-Tools package.
data_YbNaO2
_symmetry_space_group_name_H-M  'R-3m'
_cell_length_a       3.37086
_cell_length_b       3.37086
_cell_length_c       5.77141
_cell_angle_alpha    73.0108
_cell_angle_beta     106.989
_cell_angle_gamma    119.999

_symmetry_Int_Tables_number  166
_chemical_formula_structural  YbNaO2
_chemical_formula_sum  YbNaO2
_cell_volume  53.46333307124173
_cell_formula_units_Z  1
loop_
  _symmetry_equiv_pos_site_id
 _symmetry_equiv_pos_as_xyz
 1  'x, y, z'
loop_
 _atom_site_type_symbol
 _atom_site_label
 _atom_site_symmetry_multiplicity
 _atom_site_fract_x
 _atom_site_fract_y
 _atom_site_fract_z
 _atom_site_fract_occupancy
 Na  Na1  1  0.50000  0.50000  0.50000  1
 O  O1  1  0.25825  0.74175  0.77484  1
 O  O2  1  0.74175  0.25825  0.22516  1
 Yb  Yb1  1  0.00000  0.00000  0.00000  1
