CIF file written using JARVIS-Tools package.
data_Li4ZnCd3
_symmetry_space_group_name_H-M  'R3m'
_cell_length_a       8.0546
_cell_length_b       8.05459
_cell_length_c       8.05459
_cell_angle_alpha    33.4987
_cell_angle_beta     33.4987
_cell_angle_gamma    33.4988

_symmetry_Int_Tables_number  160
_chemical_formula_structural  Li4ZnCd3
_chemical_formula_sum  Li4ZnCd3
_cell_volume  141.76958344903386
_cell_formula_units_Z  1
loop_
  _symmetry_equiv_pos_site_id
 _symmetry_equiv_pos_as_xyz
 1  'x, y, z'
loop_
 _atom_site_type_symbol
 _atom_site_label
 _atom_site_symmetry_multiplicity
 _atom_site_fract_x
 _atom_site_fract_y
 _atom_site_fract_z
 _atom_site_fract_occupancy
 Cd  Cd1  1  0.87398  0.87398  0.87398  1
 Cd  Cd2  1  0.74590  0.74590  0.74590  1
 Cd  Cd3  1  0.25500  0.25500  0.25500  1
 Li  Li1  1  0.12634  0.12634  0.12634  1
 Li  Li2  1  0.62343  0.62343  0.62343  1
 Li  Li3  1  0.00310  0.00310  0.00310  1
 Li  Li4  1  0.49613  0.49613  0.49613  1
 Zn  Zn1  1  0.37612  0.37612  0.37612  1
