CIF file written using JARVIS-Tools package.
data_Ba2In2O5
_symmetry_space_group_name_H-M  'Pmm2'
_cell_length_a       4.15319
_cell_length_b       4.27295
_cell_length_c       8.73738
_cell_angle_alpha    90
_cell_angle_beta     90
_cell_angle_gamma    90

_symmetry_Int_Tables_number  25
_chemical_formula_structural  Ba2In2O5
_chemical_formula_sum  Ba2In2O5
_cell_volume  155.05704126540118
_cell_formula_units_Z  1
loop_
  _symmetry_equiv_pos_site_id
 _symmetry_equiv_pos_as_xyz
 1  'x, y, z'
loop_
 _atom_site_type_symbol
 _atom_site_label
 _atom_site_symmetry_multiplicity
 _atom_site_fract_x
 _atom_site_fract_y
 _atom_site_fract_z
 _atom_site_fract_occupancy
 Ba  Ba1  1  0.00000  0.99198  0.71822  1
 Ba  Ba2  1  0.00000  0.99198  0.28178  1
 In  In1  1  0.50000  0.48319  0.50000  1
 In  In2  1  0.50000  0.56148  0.00000  1
 O  O1  1  0.50000  0.43722  0.77224  1
 O  O2  1  0.50000  0.43722  0.22776  1
 O  O3  1  0.50000  0.98324  0.50000  1
 O  O4  1  0.00000  0.49949  0.50000  1
 O  O5  1  0.00000  0.75841  0.00000  1
