CIF file written using JARVIS-Tools package.
data_In4SbTe3
_symmetry_space_group_name_H-M  'Immm'
_cell_length_a       7.65537
_cell_length_b       7.65537
_cell_length_c       6.22671
_cell_angle_alpha    66.0053
_cell_angle_beta     66.0053
_cell_angle_gamma    109.57

_symmetry_Int_Tables_number  71
_chemical_formula_structural  In4SbTe3
_chemical_formula_sum  In4SbTe3
_cell_volume  243.78371697915608
_cell_formula_units_Z  1
loop_
  _symmetry_equiv_pos_site_id
 _symmetry_equiv_pos_as_xyz
 1  'x, y, z'
loop_
 _atom_site_type_symbol
 _atom_site_label
 _atom_site_symmetry_multiplicity
 _atom_site_fract_x
 _atom_site_fract_y
 _atom_site_fract_z
 _atom_site_fract_occupancy
 In  In1  1  0.00146  0.00146  0.00077  1
 In  In2  1  0.50132  0.50132  0.00077  1
 In  In3  1  0.24754  0.75621  0.49984  1
 In  In4  1  0.75621  0.24754  0.49984  1
 Sb  Sb1  1  0.00144  0.00144  0.50071  1
 Te  Te1  1  0.75181  0.25184  0.99992  1
 Te  Te2  1  0.25184  0.75181  0.99992  1
 Te  Te3  1  0.50154  0.50154  0.50053  1
