CIF file written using JARVIS-Tools package.
data_ZnCu2O4
_symmetry_space_group_name_H-M  'I4_1/a'
_cell_length_a       5.89802
_cell_length_b       5.89807
_cell_length_c       5.89865
_cell_angle_alpha    118.425
_cell_angle_beta     118.427
_cell_angle_gamma    92.7432

_symmetry_Int_Tables_number  88
_chemical_formula_structural  ZnCu2O4
_chemical_formula_sum  Zn2Cu4O8
_cell_volume  148.37064894895636
_cell_formula_units_Z  2
loop_
  _symmetry_equiv_pos_site_id
 _symmetry_equiv_pos_as_xyz
 1  'x, y, z'
loop_
 _atom_site_type_symbol
 _atom_site_label
 _atom_site_symmetry_multiplicity
 _atom_site_fract_x
 _atom_site_fract_y
 _atom_site_fract_z
 _atom_site_fract_occupancy
 Cu  Cu1  1  0.50000  0.00000  0.00000  1
 Cu  Cu2  1  -0.00000  0.00000  0.50000  1
 Cu  Cu3  1  0.50000  -0.00001  0.50000  1
 Cu  Cu4  1  0.50000  0.50000  -0.00000  1
 O  O1  1  0.71874  0.17548  0.93818  1
 O  O2  1  0.32447  0.26271  0.04323  1
 O  O3  1  0.21948  0.78125  0.45677  1
 O  O4  1  0.76272  0.71943  0.43819  1
 O  O5  1  0.78052  0.21875  0.54323  1
 O  O6  1  0.67553  0.73728  0.95676  1
 O  O7  1  0.23728  0.28057  0.56180  1
 O  O8  1  0.28126  0.82452  0.06182  1
 Zn  Zn1  1  0.87503  0.62499  0.75000  1
 Zn  Zn2  1  0.12498  0.37501  0.25000  1
