CIF file written using JARVIS-Tools package.
data_OsO4
_symmetry_space_group_name_H-M  'C2/c'
_cell_length_a       4.43509
_cell_length_b       5.16409
_cell_length_c       7.96676
_cell_angle_alpha    77.4378
_cell_angle_beta     73.8459
_cell_angle_gamma    64.5777

_symmetry_Int_Tables_number  15
_chemical_formula_structural  OsO4
_chemical_formula_sum  Os2O8
_cell_volume  157.27493819608776
_cell_formula_units_Z  2
loop_
  _symmetry_equiv_pos_site_id
 _symmetry_equiv_pos_as_xyz
 1  'x, y, z'
loop_
 _atom_site_type_symbol
 _atom_site_label
 _atom_site_symmetry_multiplicity
 _atom_site_fract_x
 _atom_site_fract_y
 _atom_site_fract_z
 _atom_site_fract_occupancy
 O  O1  1  0.09025  0.95235  0.80772  1
 O  O2  1  0.85046  0.54753  0.69229  1
 O  O3  1  0.90975  0.04765  0.19228  1
 O  O4  1  0.14954  0.45247  0.30771  1
 O  O5  1  0.63745  0.18902  0.57389  1
 O  O6  1  0.40049  0.31087  0.92607  1
 O  O7  1  0.36255  0.81098  0.42611  1
 O  O8  1  0.59951  0.68913  0.07393  1
 Os  Os1  1  0.74475  0.24994  0.74999  1
 Os  Os2  1  0.25525  0.75006  0.25001  1
