CIF file written using JARVIS-Tools package.
data_K4NaCl5
_symmetry_space_group_name_H-M  'R-3m'
_cell_length_a       17.9891
_cell_length_b       17.9891
_cell_length_c       17.9891
_cell_angle_alpha    13.7815
_cell_angle_beta     13.7815
_cell_angle_gamma    13.7815

_symmetry_Int_Tables_number  166
_chemical_formula_structural  K4NaCl5
_chemical_formula_sum  K4NaCl5
_cell_volume  287.4761150062978
_cell_formula_units_Z  1
loop_
  _symmetry_equiv_pos_site_id
 _symmetry_equiv_pos_as_xyz
 1  'x, y, z'
loop_
 _atom_site_type_symbol
 _atom_site_label
 _atom_site_symmetry_multiplicity
 _atom_site_fract_x
 _atom_site_fract_y
 _atom_site_fract_z
 _atom_site_fract_occupancy
 Cl  Cl1  1  0.69456  0.69456  0.69456  1
 Cl  Cl2  1  0.50000  0.50000  0.50000  1
 Cl  Cl3  1  0.09731  0.09731  0.09731  1
 Cl  Cl4  1  0.30544  0.30544  0.30544  1
 Cl  Cl5  1  0.90269  0.90269  0.90269  1
 K  K1  1  0.60403  0.60403  0.60403  1
 K  K2  1  0.20135  0.20135  0.20135  1
 K  K3  1  0.79865  0.79865  0.79865  1
 K  K4  1  0.39597  0.39597  0.39597  1
 Na  Na1  1  0.00000  0.00000  0.00000  1
