CIF file written using JARVIS-Tools package.
data_SrClO
_symmetry_space_group_name_H-M  'P6_3mc'
_cell_length_a       4.22638
_cell_length_b       4.22639
_cell_length_c       9.49967
_cell_angle_alpha    90
_cell_angle_beta     90
_cell_angle_gamma    120

_symmetry_Int_Tables_number  186
_chemical_formula_structural  SrClO
_chemical_formula_sum  Sr2Cl2O2
_cell_volume  146.95254483990604
_cell_formula_units_Z  2
loop_
  _symmetry_equiv_pos_site_id
 _symmetry_equiv_pos_as_xyz
 1  'x, y, z'
loop_
 _atom_site_type_symbol
 _atom_site_label
 _atom_site_symmetry_multiplicity
 _atom_site_fract_x
 _atom_site_fract_y
 _atom_site_fract_z
 _atom_site_fract_occupancy
 Cl  Cl1  1  0.66667  0.33333  0.74732  1
 Cl  Cl2  1  0.33333  0.66667  0.24732  1
 O  O1  1  0.00000  0.00000  0.98820  1
 O  O2  1  0.00000  0.00000  0.48820  1
 Sr  Sr1  1  0.66667  0.33333  0.43729  1
 Sr  Sr2  1  0.33333  0.66667  0.93729  1
