CIF file written using JARVIS-Tools package.
data_YbTlBr3
_symmetry_space_group_name_H-M  'Cmcm'
_cell_length_a       7.27465
_cell_length_b       7.27465
_cell_length_c       10.8452
_cell_angle_alpha    90
_cell_angle_beta     90
_cell_angle_gamma    146.281

_symmetry_Int_Tables_number  63
_chemical_formula_structural  YbTlBr3
_chemical_formula_sum  Yb2Tl2Br6
_cell_volume  318.5992734574546
_cell_formula_units_Z  2
loop_
  _symmetry_equiv_pos_site_id
 _symmetry_equiv_pos_as_xyz
 1  'x, y, z'
loop_
 _atom_site_type_symbol
 _atom_site_label
 _atom_site_symmetry_multiplicity
 _atom_site_fract_x
 _atom_site_fract_y
 _atom_site_fract_z
 _atom_site_fract_occupancy
 Br  Br1  1  0.63595  0.36405  0.04869  1
 Br  Br2  1  0.36405  0.63595  0.95131  1
 Br  Br3  1  0.36405  0.63595  0.54869  1
 Br  Br4  1  0.63595  0.36405  0.45131  1
 Br  Br5  1  0.93757  0.06243  0.25000  1
 Br  Br6  1  0.06243  0.93757  0.75000  1
 Tl  Tl1  1  0.25651  0.74349  0.25000  1
 Tl  Tl2  1  0.74349  0.25651  0.75000  1
 Yb  Yb1  1  0.00000  0.00000  0.00000  1
 Yb  Yb2  1  0.00000  0.00000  0.50000  1
