CIF file written using JARVIS-Tools package.
data_La2AuO4
_symmetry_space_group_name_H-M  'I4/mmm'
_cell_length_a       6.85518
_cell_length_b       6.85518
_cell_length_c       6.85518
_cell_angle_alpha    144.363
_cell_angle_beta     144.364
_cell_angle_gamma    51.284

_symmetry_Int_Tables_number  139
_chemical_formula_structural  La2AuO4
_chemical_formula_sum  La2AuO4
_cell_volume  108.77448661546597
_cell_formula_units_Z  1
loop_
  _symmetry_equiv_pos_site_id
 _symmetry_equiv_pos_as_xyz
 1  'x, y, z'
loop_
 _atom_site_type_symbol
 _atom_site_label
 _atom_site_symmetry_multiplicity
 _atom_site_fract_x
 _atom_site_fract_y
 _atom_site_fract_z
 _atom_site_fract_occupancy
 Au  Au1  1  0.50000  0.50000  0.00000  1
 La  La1  1  0.84756  0.84756  -0.00000  1
 La  La2  1  0.15244  0.15244  0.00000  1
 O  O1  1  0.25000  0.75000  0.50000  1
 O  O2  1  0.75000  0.25000  0.50000  1
 O  O3  1  0.50000  -0.00000  0.50000  1
 O  O4  1  -0.00000  0.50000  0.50000  1
