CIF file written using JARVIS-Tools package.
data_NaAgO
_symmetry_space_group_name_H-M  'I4/mmm'
_cell_length_a       4.62827
_cell_length_b       7.0865
_cell_length_c       7.08649
_cell_angle_alpha    83.8784
_cell_angle_beta     70.9402
_cell_angle_gamma    70.9402

_symmetry_Int_Tables_number  139
_chemical_formula_structural  NaAgO
_chemical_formula_sum  Na4Ag4O4
_cell_volume  207.63885532877336
_cell_formula_units_Z  4
loop_
  _symmetry_equiv_pos_site_id
 _symmetry_equiv_pos_as_xyz
 1  'x, y, z'
loop_
 _atom_site_type_symbol
 _atom_site_label
 _atom_site_symmetry_multiplicity
 _atom_site_fract_x
 _atom_site_fract_y
 _atom_site_fract_z
 _atom_site_fract_occupancy
 Ag  Ag1  1  0.90849  0.50000  0.18303  1
 Ag  Ag2  1  0.90849  0.18303  0.50000  1
 Ag  Ag3  1  0.59151  0.81697  0.50000  1
 Ag  Ag4  1  0.59151  0.50000  0.81697  1
 Na  Na1  1  0.91081  0.83919  0.83919  1
 Na  Na2  1  0.25000  0.83919  0.16081  1
 Na  Na3  1  0.25000  0.16081  0.83919  1
 Na  Na4  1  0.58919  0.16081  0.16081  1
 O  O1  1  0.44047  0.80953  0.80953  1
 O  O2  1  0.75000  0.80953  0.19047  1
 O  O3  1  0.75000  0.19047  0.80953  1
 O  O4  1  0.05953  0.19047  0.19047  1
