CIF file written using JARVIS-Tools package.
data_Mn4Ga
_symmetry_space_group_name_H-M  'R-3m'
_cell_length_a       2.55137
_cell_length_b       2.55138
_cell_length_c       10.2282
_cell_angle_alpha    82.8353
_cell_angle_beta     90
_cell_angle_gamma    120

_symmetry_Int_Tables_number  166
_chemical_formula_structural  Mn4Ga
_chemical_formula_sum  Mn4Ga
_cell_volume  57.0595107745938
_cell_formula_units_Z  1
loop_
  _symmetry_equiv_pos_site_id
 _symmetry_equiv_pos_as_xyz
 1  'x, y, z'
loop_
 _atom_site_type_symbol
 _atom_site_label
 _atom_site_symmetry_multiplicity
 _atom_site_fract_x
 _atom_site_fract_y
 _atom_site_fract_z
 _atom_site_fract_occupancy
 Ga  Ga1  1  0.00000  0.00000  0.00000  1
 Mn  Mn1  1  0.59567  0.19135  0.21298  1
 Mn  Mn2  1  0.20070  0.40140  0.39790  1
 Mn  Mn3  1  0.79930  0.59860  0.60210  1
 Mn  Mn4  1  0.40433  0.80865  0.78702  1
