CIF file written using JARVIS-Tools package.
data_Li3VO3F2
_symmetry_space_group_name_H-M  'P1'
_cell_length_a       3.66044
_cell_length_b       5.18969
_cell_length_c       6.48584
_cell_angle_alpha    53.8296
_cell_angle_beta     90.3404
_cell_angle_gamma    69.416

_symmetry_Int_Tables_number  1
_chemical_formula_structural  Li3VO3F2
_chemical_formula_sum  Li3VO3F2
_cell_volume  89.32105842128318
_cell_formula_units_Z  1
loop_
  _symmetry_equiv_pos_site_id
 _symmetry_equiv_pos_as_xyz
 1  'x, y, z'
loop_
 _atom_site_type_symbol
 _atom_site_label
 _atom_site_symmetry_multiplicity
 _atom_site_fract_x
 _atom_site_fract_y
 _atom_site_fract_z
 _atom_site_fract_occupancy
 F  F1  1  0.23466  0.52027  0.36181  1
 F  F2  1  0.90982  0.17123  0.23063  1
 Li  Li1  1  0.14502  0.70570  0.55339  1
 Li  Li2  1  0.67768  0.64403  0.91467  1
 Li  Li3  1  0.81066  0.36831  0.41907  1
 O  O1  1  0.06504  0.86363  0.79525  1
 O  O2  1  0.52342  0.94462  0.04566  1
 O  O3  1  0.76612  0.46854  0.71594  1
 V  V1  1  0.01384  0.02115  0.96983  1
