CIF file written using JARVIS-Tools package.
data_FeCu
_symmetry_space_group_name_H-M  'P4/mmm'
_cell_length_a       2.48869
_cell_length_b       2.48869
_cell_length_c       3.78211
_cell_angle_alpha    90
_cell_angle_beta     90
_cell_angle_gamma    91.8265

_symmetry_Int_Tables_number  123
_chemical_formula_structural  FeCu
_chemical_formula_sum  FeCu
_cell_volume  23.41280826076322
_cell_formula_units_Z  1
loop_
  _symmetry_equiv_pos_site_id
 _symmetry_equiv_pos_as_xyz
 1  'x, y, z'
loop_
 _atom_site_type_symbol
 _atom_site_label
 _atom_site_symmetry_multiplicity
 _atom_site_fract_x
 _atom_site_fract_y
 _atom_site_fract_z
 _atom_site_fract_occupancy
 Cu  Cu1  1  0.50000  0.50000  0.50000  1
 Fe  Fe1  1  0.00000  0.00000  0.00000  1
