CIF file written using JARVIS-Tools package.
data_CeScGe
_symmetry_space_group_name_H-M  'I4/mmm'
_cell_length_a       4.24291
_cell_length_b       4.24292
_cell_length_c       8.50788
_cell_angle_alpha    104.439
_cell_angle_beta     104.439
_cell_angle_gamma    90

_symmetry_Int_Tables_number  139
_chemical_formula_structural  CeScGe
_chemical_formula_sum  Ce2Sc2Ge2
_cell_volume  143.322694397886
_cell_formula_units_Z  2
loop_
  _symmetry_equiv_pos_site_id
 _symmetry_equiv_pos_as_xyz
 1  'x, y, z'
loop_
 _atom_site_type_symbol
 _atom_site_label
 _atom_site_symmetry_multiplicity
 _atom_site_fract_x
 _atom_site_fract_y
 _atom_site_fract_z
 _atom_site_fract_occupancy
 Ce  Ce1  1  0.67918  0.67918  0.35837  1
 Ce  Ce2  1  0.32082  0.32082  0.64163  1
 Ge  Ge1  1  0.12384  0.12384  0.24769  1
 Ge  Ge2  1  0.87616  0.87616  0.75231  1
 Sc  Sc1  1  0.00000  0.50000  0.00000  1
 Sc  Sc2  1  0.50000  0.00000  0.00000  1
