CIF file written using JARVIS-Tools package.
data_Mg3Si4H2O12
_symmetry_space_group_name_H-M  'P-1'
_cell_length_a       5.32775
_cell_length_b       5.33965
_cell_length_c       9.43104
_cell_angle_alpha    85.6216
_cell_angle_beta     95.8018
_cell_angle_gamma    59.9274

_symmetry_Int_Tables_number  2
_chemical_formula_structural  Mg3Si4H2O12
_chemical_formula_sum  Mg3Si4H2O2
_cell_volume  228.46559280106905
_cell_formula_units_Z  1
loop_
  _symmetry_equiv_pos_site_id
 _symmetry_equiv_pos_as_xyz
 1  'x, y, z'
loop_
 _atom_site_type_symbol
 _atom_site_label
 _atom_site_symmetry_multiplicity
 _atom_site_fract_x
 _atom_site_fract_y
 _atom_site_fract_z
 _atom_site_fract_occupancy
 H  H1  1  0.59599  0.06561  0.78092  1
 H  H2  1  0.40401  0.93439  0.21908  1
 Mg  Mg1  1  0.00000  0.00000  0.00000  1
 Mg  Mg2  1  0.66665  0.66687  0.00022  1
 Mg  Mg3  1  0.33335  0.33313  0.99978  1
 O  O1  1  0.29501  0.70147  0.88116  1
 O  O2  1  0.62936  0.03380  0.88584  1
 O  O3  1  0.95948  0.36958  0.88119  1
 O  O4  1  0.04052  0.63042  0.11881  1
 O  O5  1  0.70499  0.29853  0.11884  1
 O  O6  1  0.91557  0.42890  0.35344  1
 O  O7  1  0.01540  0.10555  0.64672  1
 O  O8  1  0.54919  0.63991  0.64430  1
 O  O9  1  0.08443  0.57110  0.64656  1
 O  O10  1  0.45081  0.36009  0.35570  1
 O  O11  1  0.98460  0.89445  0.35328  1
 O  O12  1  0.37064  0.96620  0.11416  1
 Si  Si1  1  0.09804  0.57817  0.29553  1
 Si  Si2  1  0.90196  0.42183  0.70447  1
 Si  Si3  1  0.76392  0.24532  0.29553  1
 Si  Si4  1  0.23608  0.75468  0.70447  1
