CIF file written using JARVIS-Tools package.
data_Li4UO5
_symmetry_space_group_name_H-M  'I4/m'
_cell_length_a       4.43986
_cell_length_b       5.24778
_cell_length_c       5.24751
_cell_angle_alpha    79.6958
_cell_angle_beta     64.9751
_cell_angle_gamma    64.9803

_symmetry_Int_Tables_number  87
_chemical_formula_structural  Li4UO5
_chemical_formula_sum  Li4UO5
_cell_volume  100.39045292235919
_cell_formula_units_Z  1
loop_
  _symmetry_equiv_pos_site_id
 _symmetry_equiv_pos_as_xyz
 1  'x, y, z'
loop_
 _atom_site_type_symbol
 _atom_site_label
 _atom_site_symmetry_multiplicity
 _atom_site_fract_x
 _atom_site_fract_y
 _atom_site_fract_z
 _atom_site_fract_occupancy
 Li  Li1  1  0.81661  0.76344  0.60343  1
 Li  Li2  1  0.58002  0.60341  0.23651  1
 Li  Li3  1  0.18339  0.23656  0.39657  1
 Li  Li4  1  0.41998  0.39659  0.76349  1
 O  O1  1  0.91271  0.37741  0.79721  1
 O  O2  1  0.08729  0.62259  0.20279  1
 O  O3  1  0.70989  0.20283  0.37742  1
 O  O4  1  0.29011  0.79717  0.62258  1
 O  O5  1  0.50000  0.00000  -0.00000  1
 U  U1  1  0.00000  0.00000  0.00000  1
