CIF file written using JARVIS-Tools package.
data_Na4SeS
_symmetry_space_group_name_H-M  'P4/mmm'
_cell_length_a       4.70261
_cell_length_b       4.70261
_cell_length_c       6.66472
_cell_angle_alpha    90
_cell_angle_beta     90
_cell_angle_gamma    90

_symmetry_Int_Tables_number  123
_chemical_formula_structural  Na4SeS
_chemical_formula_sum  Na4SeS
_cell_volume  147.3871159256266
_cell_formula_units_Z  1
loop_
  _symmetry_equiv_pos_site_id
 _symmetry_equiv_pos_as_xyz
 1  'x, y, z'
loop_
 _atom_site_type_symbol
 _atom_site_label
 _atom_site_symmetry_multiplicity
 _atom_site_fract_x
 _atom_site_fract_y
 _atom_site_fract_z
 _atom_site_fract_occupancy
 Na  Na1  1  0.50000  0.00000  0.75738  1
 Na  Na2  1  0.00000  0.50000  0.24262  1
 Na  Na3  1  0.50000  0.00000  0.24262  1
 Na  Na4  1  0.00000  0.50000  0.75738  1
 S  S1  1  0.00000  0.00000  0.00000  1
 Se  Se1  1  0.50000  0.50000  0.50000  1
