CIF file written using JARVIS-Tools package.
data_Pr2C3
_symmetry_space_group_name_H-M  'I-43d'
_cell_length_a       7.53582
_cell_length_b       7.53582
_cell_length_c       7.53582
_cell_angle_alpha    109.471
_cell_angle_beta     109.471
_cell_angle_gamma    109.471

_symmetry_Int_Tables_number  220
_chemical_formula_structural  Pr2C3
_chemical_formula_sum  Pr8C2
_cell_volume  329.43445951965515
_cell_formula_units_Z  4
loop_
  _symmetry_equiv_pos_site_id
 _symmetry_equiv_pos_as_xyz
 1  'x, y, z'
loop_
 _atom_site_type_symbol
 _atom_site_label
 _atom_site_symmetry_multiplicity
 _atom_site_fract_x
 _atom_site_fract_y
 _atom_site_fract_z
 _atom_site_fract_occupancy
 C  C1  1  0.75000  0.95086  0.20086  1
 C  C2  1  0.45086  0.25000  0.70086  1
 C  C3  1  0.04914  0.75000  0.79914  1
 C  C4  1  0.79914  0.04914  0.75000  1
 C  C5  1  0.70086  0.45086  0.25000  1
 C  C6  1  0.25000  0.70086  0.45086  1
 C  C7  1  0.95086  0.20086  0.75000  1
 C  C8  1  0.20086  0.75000  0.95086  1
 C  C9  1  0.25000  0.54914  0.29914  1
 C  C10  1  0.29914  0.25000  0.54914  1
 C  C11  1  0.75000  0.79914  0.04914  1
 C  C12  1  0.54914  0.29914  0.25000  1
 Pr  Pr1  1  0.39549  0.50000  -0.00000  1
 Pr  Pr2  1  0.10451  0.10451  0.10451  1
 Pr  Pr3  1  0.89549  0.50000  -0.00000  1
 Pr  Pr4  1  -0.00000  0.89549  0.50000  1
 Pr  Pr5  1  0.50000  0.00000  0.89549  1
 Pr  Pr6  1  -0.00000  0.39549  0.50000  1
 Pr  Pr7  1  0.50000  0.00000  0.39549  1
 Pr  Pr8  1  0.60451  0.60451  0.60451  1
