CIF file written using JARVIS-Tools package.
data_AgBiP2S6
_symmetry_space_group_name_H-M  'P-1'
_cell_length_a       6.4548
_cell_length_b       7.21764
_cell_length_c       9.66931
_cell_angle_alpha    92.2477
_cell_angle_beta     91.317
_cell_angle_gamma    95.4224

_symmetry_Int_Tables_number  2
_chemical_formula_structural  AgBiP2S6
_chemical_formula_sum  Ag2Bi2P4S2
_cell_volume  447.95549971245003
_cell_formula_units_Z  2
loop_
  _symmetry_equiv_pos_site_id
 _symmetry_equiv_pos_as_xyz
 1  'x, y, z'
loop_
 _atom_site_type_symbol
 _atom_site_label
 _atom_site_symmetry_multiplicity
 _atom_site_fract_x
 _atom_site_fract_y
 _atom_site_fract_z
 _atom_site_fract_occupancy
 Ag  Ag1  1  0.06032  0.01913  0.30126  1
 Ag  Ag2  1  0.93968  0.98087  0.69874  1
 Bi  Bi1  1  0.53454  0.37376  0.77033  1
 Bi  Bi2  1  0.46546  0.62624  0.22967  1
 P  P1  1  0.94200  0.61041  0.07054  1
 P  P2  1  0.43763  0.88051  0.56528  1
 P  P3  1  0.56237  0.11949  0.43472  1
 P  P4  1  0.05800  0.38959  0.92946  1
 S  S1  1  0.17946  0.82168  0.07917  1
 S  S2  1  0.80167  0.25837  0.54874  1
 S  S3  1  0.12629  0.51059  0.74919  1
 S  S4  1  0.32092  0.27763  0.40804  1
 S  S5  1  0.67908  0.72237  0.59196  1
 S  S6  1  0.87371  0.48941  0.25081  1
 S  S7  1  0.82054  0.17832  0.92083  1
 S  S8  1  0.33352  0.00252  0.74546  1
 S  S9  1  0.68509  0.69880  0.97179  1
 S  S10  1  0.31491  0.30120  0.02821  1
 S  S11  1  0.66648  0.99748  0.25454  1
 S  S12  1  0.19833  0.74163  0.45126  1
