CIF file written using JARVIS-Tools package.
data_ZnCu2O4
_symmetry_space_group_name_H-M  'Cmcm'
_cell_length_a       2.92553
_cell_length_b       5.04316
_cell_length_c       9.41884
_cell_angle_alpha    90
_cell_angle_beta     90
_cell_angle_gamma    106.861

_symmetry_Int_Tables_number  63
_chemical_formula_structural  ZnCu2O4
_chemical_formula_sum  Zn2Cu4O8
_cell_volume  132.9909374445947
_cell_formula_units_Z  2
loop_
  _symmetry_equiv_pos_site_id
 _symmetry_equiv_pos_as_xyz
 1  'x, y, z'
loop_
 _atom_site_type_symbol
 _atom_site_label
 _atom_site_symmetry_multiplicity
 _atom_site_fract_x
 _atom_site_fract_y
 _atom_site_fract_z
 _atom_site_fract_occupancy
 Cu  Cu1  1  0.86823  0.73646  0.06980  1
 Cu  Cu2  1  0.13177  0.26354  0.93020  1
 Cu  Cu3  1  0.86823  0.73646  0.43020  1
 Cu  Cu4  1  0.13177  0.26354  0.56980  1
 O  O1  1  0.22162  0.44324  0.38714  1
 O  O2  1  0.77838  0.55676  0.61286  1
 O  O3  1  0.77838  0.55676  0.88714  1
 O  O4  1  0.22162  0.44324  0.11286  1
 O  O5  1  0.95853  0.91706  0.25000  1
 O  O6  1  0.04147  0.08294  0.75000  1
 O  O7  1  0.50000  0.00000  0.00000  1
 O  O8  1  0.50000  0.00000  0.50000  1
 Zn  Zn1  1  0.39127  0.78254  0.75000  1
 Zn  Zn2  1  0.60873  0.21746  0.25000  1
