CIF file written using JARVIS-Tools package.
data_SmAlSi
_symmetry_space_group_name_H-M  'I4_1md'
_cell_length_a       4.18621
_cell_length_b       4.18621
_cell_length_c       7.86174
_cell_angle_alpha    105.441
_cell_angle_beta     105.441
_cell_angle_gamma    90.0001

_symmetry_Int_Tables_number  109
_chemical_formula_structural  SmAlSi
_chemical_formula_sum  Sm2Al2Si2
_cell_volume  127.63316170250755
_cell_formula_units_Z  2
loop_
  _symmetry_equiv_pos_site_id
 _symmetry_equiv_pos_as_xyz
 1  'x, y, z'
loop_
 _atom_site_type_symbol
 _atom_site_label
 _atom_site_symmetry_multiplicity
 _atom_site_fract_x
 _atom_site_fract_y
 _atom_site_fract_z
 _atom_site_fract_occupancy
 Al  Al1  1  0.91331  0.41331  0.82662  1
 Al  Al2  1  0.16331  0.16331  0.32662  1
 Si  Si1  1  0.99770  0.99770  0.99541  1
 Si  Si2  1  0.74770  0.24770  0.49541  1
 Sm  Sm1  1  0.32938  0.82938  0.65877  1
 Sm  Sm2  1  0.57938  0.57938  0.15877  1
