CIF file written using JARVIS-Tools package.
data_FeCoSi2
_symmetry_space_group_name_H-M  'P2_1'
_cell_length_a       4.45313
_cell_length_b       4.45895
_cell_length_c       4.4612
_cell_angle_alpha    89.6399
_cell_angle_beta     90
_cell_angle_gamma    90

_symmetry_Int_Tables_number  4
_chemical_formula_structural  FeCoSi2
_chemical_formula_sum  Fe2Co2Si4
_cell_volume  88.58100295219285
_cell_formula_units_Z  2
loop_
  _symmetry_equiv_pos_site_id
 _symmetry_equiv_pos_as_xyz
 1  'x, y, z'
loop_
 _atom_site_type_symbol
 _atom_site_label
 _atom_site_symmetry_multiplicity
 _atom_site_fract_x
 _atom_site_fract_y
 _atom_site_fract_z
 _atom_site_fract_occupancy
 Co  Co1  1  0.63691  0.63647  0.89035  1
 Co  Co2  1  0.13691  0.36353  0.10965  1
 Fe  Fe1  1  0.36108  0.86142  0.38658  1
 Fe  Fe2  1  0.86108  0.13858  0.61342  1
 Si  Si1  1  0.34181  0.34105  0.58766  1
 Si  Si2  1  0.84181  0.65895  0.41234  1
 Si  Si3  1  0.66020  0.15727  0.09289  1
 Si  Si4  1  0.16020  0.84273  0.90711  1
