CIF file written using JARVIS-Tools package.
data_Na4WO4
_symmetry_space_group_name_H-M  'I4/m'
_cell_length_a       5.59085
_cell_length_b       5.59085
_cell_length_c       5.59085
_cell_angle_alpha    100.868
_cell_angle_beta     100.868
_cell_angle_gamma    128.528

_symmetry_Int_Tables_number  87
_chemical_formula_structural  Na4WO4
_chemical_formula_sum  Na4WO4
_cell_volume  123.1514020045794
_cell_formula_units_Z  1
loop_
  _symmetry_equiv_pos_site_id
 _symmetry_equiv_pos_as_xyz
 1  'x, y, z'
loop_
 _atom_site_type_symbol
 _atom_site_label
 _atom_site_symmetry_multiplicity
 _atom_site_fract_x
 _atom_site_fract_y
 _atom_site_fract_z
 _atom_site_fract_occupancy
 Na  Na1  1  0.80190  0.41202  0.21392  1
 Na  Na2  1  0.41202  0.19810  0.61012  1
 Na  Na3  1  0.58798  0.80190  0.38988  1
 Na  Na4  1  0.19810  0.58798  0.78608  1
 O  O1  1  0.25465  0.91709  0.17175  1
 O  O2  1  0.91709  0.74535  0.66244  1
 O  O3  1  0.08291  0.25465  0.33756  1
 O  O4  1  0.74535  0.08291  0.82825  1
 W  W1  1  0.00000  0.00000  0.00000  1
