CIF file written using JARVIS-Tools package.
data_SmPtF7
_symmetry_space_group_name_H-M  'P2_1/c'
_cell_length_a       8.99352
_cell_length_b       5.48679
_cell_length_c       12.1635
_cell_angle_alpha    90
_cell_angle_beta     117.95
_cell_angle_gamma    90

_symmetry_Int_Tables_number  14
_chemical_formula_structural  SmPtF7
_chemical_formula_sum  Sm4Pt4F28
_cell_volume  530.2044306841989
_cell_formula_units_Z  4
loop_
  _symmetry_equiv_pos_site_id
 _symmetry_equiv_pos_as_xyz
 1  'x, y, z'
loop_
 _atom_site_type_symbol
 _atom_site_label
 _atom_site_symmetry_multiplicity
 _atom_site_fract_x
 _atom_site_fract_y
 _atom_site_fract_z
 _atom_site_fract_occupancy
 F  F1  1  0.96299  0.39280  0.77060  1
 F  F2  1  0.97485  0.25042  0.54857  1
 F  F3  1  0.48224  0.28004  0.36415  1
 F  F4  1  0.51776  0.71996  0.63585  1
 F  F5  1  0.48224  0.21996  0.86415  1
 F  F6  1  0.03701  0.60720  0.22940  1
 F  F7  1  0.51776  0.78004  0.13585  1
 F  F8  1  0.74219  0.06569  0.82350  1
 F  F9  1  0.27046  0.06688  0.96012  1
 F  F10  1  0.72954  0.93312  0.03988  1
 F  F11  1  0.27046  0.43312  0.46012  1
 F  F12  1  0.70668  0.07426  0.58872  1
 F  F13  1  0.29332  0.57426  0.91128  1
 F  F14  1  0.29332  0.92574  0.41128  1
 F  F15  1  0.70668  0.42574  0.08872  1
 F  F16  1  0.72954  0.56688  0.53988  1
 F  F17  1  0.03701  0.89280  0.72940  1
 F  F18  1  0.96299  0.10720  0.27060  1
 F  F19  1  0.97485  0.24958  0.04857  1
 F  F20  1  0.02515  0.75042  0.95143  1
 F  F21  1  0.71917  0.95482  0.36947  1
 F  F22  1  0.28083  0.45482  0.13053  1
 F  F23  1  0.28083  0.04518  0.63053  1
 F  F24  1  0.02515  0.74958  0.45143  1
 F  F25  1  0.74219  0.43431  0.32350  1
 F  F26  1  0.25781  0.56569  0.67650  1
 F  F27  1  0.25781  0.93431  0.17650  1
 F  F28  1  0.71917  0.54518  0.86947  1
 Pt  Pt1  1  0.27188  0.74270  0.54177  1
 Pt  Pt2  1  0.72812  0.24270  0.95823  1
 Pt  Pt3  1  0.72812  0.25730  0.45823  1
 Pt  Pt4  1  0.27188  0.75730  0.04177  1
 Sm  Sm1  1  0.81204  0.73741  0.73678  1
 Sm  Sm2  1  0.18796  0.23741  0.76322  1
 Sm  Sm3  1  0.18796  0.26259  0.26322  1
 Sm  Sm4  1  0.81204  0.76259  0.23678  1
