CIF file written using JARVIS-Tools package.
data_Ti2S3
_symmetry_space_group_name_H-M  'C2/m'
_cell_length_a       5.94744
_cell_length_b       5.94743
_cell_length_c       6.02829
_cell_angle_alpha    80.5937
_cell_angle_beta     80.5937
_cell_angle_gamma    119.997

_symmetry_Int_Tables_number  12
_chemical_formula_structural  Ti2S3
_chemical_formula_sum  Ti4S6
_cell_volume  174.5276215478592
_cell_formula_units_Z  2
loop_
  _symmetry_equiv_pos_site_id
 _symmetry_equiv_pos_as_xyz
 1  'x, y, z'
loop_
 _atom_site_type_symbol
 _atom_site_label
 _atom_site_symmetry_multiplicity
 _atom_site_fract_x
 _atom_site_fract_y
 _atom_site_fract_z
 _atom_site_fract_occupancy
 S  S1  1  0.41806  0.08154  0.74156  1
 S  S2  1  0.08154  0.41806  0.74156  1
 S  S3  1  0.75074  0.75074  0.75204  1
 S  S4  1  0.58194  0.91846  0.25844  1
 S  S5  1  0.24926  0.24926  0.24796  1
 S  S6  1  0.91846  0.58194  0.25844  1
 Ti  Ti1  1  0.67279  0.32721  0.00000  1
 Ti  Ti2  1  0.32721  0.67279  0.00000  1
 Ti  Ti3  1  0.00000  0.00000  0.00000  1
 Ti  Ti4  1  0.50000  0.50000  0.50000  1
