CIF file written using JARVIS-Tools package.
data_Na5SiAs3
_symmetry_space_group_name_H-M  'P2_1/c'
_cell_length_a       8.22402
_cell_length_b       7.50764
_cell_length_c       15.7141
_cell_angle_alpha    90
_cell_angle_beta     121.364
_cell_angle_gamma    90

_symmetry_Int_Tables_number  14
_chemical_formula_structural  Na5SiAs3
_chemical_formula_sum  Na20Si4As2
_cell_volume  828.4599345921002
_cell_formula_units_Z  4
loop_
  _symmetry_equiv_pos_site_id
 _symmetry_equiv_pos_as_xyz
 1  'x, y, z'
loop_
 _atom_site_type_symbol
 _atom_site_label
 _atom_site_symmetry_multiplicity
 _atom_site_fract_x
 _atom_site_fract_y
 _atom_site_fract_z
 _atom_site_fract_occupancy
 As  As1  1  0.47705  0.31285  0.56629  1
 As  As2  1  0.47705  0.18715  0.06629  1
 As  As3  1  0.18847  0.23599  0.77319  1
 As  As4  1  0.81153  0.73599  0.72681  1
 As  As5  1  0.81153  0.76401  0.22681  1
 As  As6  1  0.18847  0.26401  0.27319  1
 As  As7  1  0.76180  0.26168  0.91912  1
 As  As8  1  0.23820  0.76168  0.58088  1
 As  As9  1  0.23820  0.73832  0.08088  1
 As  As10  1  0.76180  0.23832  0.41912  1
 As  As11  1  0.52295  0.81285  0.93371  1
 As  As12  1  0.52295  0.68715  0.43371  1
 Na  Na1  1  0.43958  0.00455  0.25778  1
 Na  Na2  1  0.43958  0.49545  0.75778  1
 Na  Na3  1  0.56042  0.99545  0.74222  1
 Na  Na4  1  0.56042  0.50455  0.24222  1
 Na  Na5  1  0.75162  0.46743  0.08411  1
 Na  Na6  1  0.83302  0.34955  0.75821  1
 Na  Na7  1  0.16698  0.84955  0.74179  1
 Na  Na8  1  0.83302  0.15045  0.25821  1
 Na  Na9  1  0.15802  0.16299  0.58083  1
 Na  Na10  1  0.84198  0.66299  0.91917  1
 Na  Na11  1  0.84198  0.83701  0.41917  1
 Na  Na12  1  0.15802  0.33701  0.08083  1
 Na  Na13  1  0.08515  0.01738  0.91213  1
 Na  Na14  1  0.91485  0.51738  0.58787  1
 Na  Na15  1  0.16698  0.65045  0.24179  1
 Na  Na16  1  0.08515  0.48262  0.41213  1
 Na  Na17  1  0.24838  0.53257  0.91589  1
 Na  Na18  1  0.75162  0.03257  0.58411  1
 Na  Na19  1  0.24838  0.96743  0.41589  1
 Na  Na20  1  0.91485  0.98262  0.08787  1
 Si  Si1  1  0.51504  0.64126  0.58592  1
 Si  Si2  1  0.48496  0.14126  0.91408  1
 Si  Si3  1  0.48496  0.35874  0.41408  1
 Si  Si4  1  0.51504  0.85874  0.08592  1
