CIF file written using JARVIS-Tools package.
data_ThIr
_symmetry_space_group_name_H-M  'Cmcm'
_cell_length_a       3.93421
_cell_length_b       4.25701
_cell_length_c       6.0309
_cell_angle_alpha    90
_cell_angle_beta     109.037
_cell_angle_gamma    90

_symmetry_Int_Tables_number  63
_chemical_formula_structural  ThIr
_chemical_formula_sum  Th2Ir2
_cell_volume  95.48112865844843
_cell_formula_units_Z  2
loop_
  _symmetry_equiv_pos_site_id
 _symmetry_equiv_pos_as_xyz
 1  'x, y, z'
loop_
 _atom_site_type_symbol
 _atom_site_label
 _atom_site_symmetry_multiplicity
 _atom_site_fract_x
 _atom_site_fract_y
 _atom_site_fract_z
 _atom_site_fract_occupancy
 Ir  Ir1  1  0.40156  0.75000  0.80313  1
 Ir  Ir2  1  0.59844  0.25000  0.19687  1
 Th  Th1  1  0.13700  0.75000  0.27400  1
 Th  Th2  1  0.86300  0.25000  0.72600  1
