CIF file written using JARVIS-Tools package.
data_VO2F
_symmetry_space_group_name_H-M  'P2_12_12_1'
_cell_length_a       4.90799
_cell_length_b       5.11547
_cell_length_c       8.52464
_cell_angle_alpha    90
_cell_angle_beta     90
_cell_angle_gamma    90

_symmetry_Int_Tables_number  19
_chemical_formula_structural  VO2F
_chemical_formula_sum  V4O8F4
_cell_volume  214.02531203763138
_cell_formula_units_Z  4
loop_
  _symmetry_equiv_pos_site_id
 _symmetry_equiv_pos_as_xyz
 1  'x, y, z'
loop_
 _atom_site_type_symbol
 _atom_site_label
 _atom_site_symmetry_multiplicity
 _atom_site_fract_x
 _atom_site_fract_y
 _atom_site_fract_z
 _atom_site_fract_occupancy
 F  F1  1  0.09967  0.61403  0.61665  1
 F  F2  1  0.40033  0.38597  0.11665  1
 F  F3  1  0.59967  0.88597  0.38335  1
 F  F4  1  0.90033  0.11403  0.88335  1
 O  O1  1  0.06348  0.86481  0.25779  1
 O  O2  1  0.92225  0.64969  0.97320  1
 O  O3  1  0.57775  0.35031  0.47320  1
 O  O4  1  0.43652  0.13519  0.75779  1
 O  O5  1  0.56348  0.63519  0.74221  1
 O  O6  1  0.42225  0.85031  0.02680  1
 O  O7  1  0.07775  0.14969  0.52680  1
 O  O8  1  0.93652  0.36481  0.24221  1
 V  V1  1  0.13175  0.62401  0.12614  1
 V  V2  1  0.36825  0.37599  0.62614  1
 V  V3  1  0.63175  0.87599  0.87386  1
 V  V4  1  0.86825  0.12401  0.37386  1
