CIF file written using JARVIS-Tools package.
data_NdB3O6
_symmetry_space_group_name_H-M  'C2/c'
_cell_length_a       6.38
_cell_length_b       6.38
_cell_length_c       6.36426
_cell_angle_alpha    62.8847
_cell_angle_beta     62.8847
_cell_angle_gamma    79.3738

_symmetry_Int_Tables_number  15
_chemical_formula_structural  NdB3O6
_chemical_formula_sum  Nd2B6O2
_cell_volume  205.1495586581294
_cell_formula_units_Z  2
loop_
  _symmetry_equiv_pos_site_id
 _symmetry_equiv_pos_as_xyz
 1  'x, y, z'
loop_
 _atom_site_type_symbol
 _atom_site_label
 _atom_site_symmetry_multiplicity
 _atom_site_fract_x
 _atom_site_fract_y
 _atom_site_fract_z
 _atom_site_fract_occupancy
 B  B1  1  0.15832  0.29112  0.91471  1
 B  B2  1  0.70888  0.84168  0.58529  1
 B  B3  1  0.27935  0.72065  0.75000  1
 B  B4  1  0.29112  0.15832  0.41471  1
 B  B5  1  0.84168  0.70888  0.08529  1
 B  B6  1  0.72065  0.27935  0.25000  1
 Nd  Nd1  1  0.69823  0.30177  0.75000  1
 Nd  Nd2  1  0.30177  0.69823  0.25000  1
 O  O1  1  0.88890  0.71150  0.50323  1
 O  O2  1  0.08567  0.71034  0.99272  1
 O  O3  1  0.28966  0.91433  0.50728  1
 O  O4  1  0.91433  0.28966  0.00728  1
 O  O5  1  0.71034  0.08567  0.49272  1
 O  O6  1  0.11110  0.28850  0.49677  1
 O  O7  1  0.28292  0.50540  0.71174  1
 O  O8  1  0.71708  0.49460  0.28826  1
 O  O9  1  0.28850  0.11110  0.99677  1
 O  O10  1  0.71150  0.88890  0.00323  1
 O  O11  1  0.49460  0.71708  0.78826  1
 O  O12  1  0.50540  0.28292  0.21174  1
