CIF file written using JARVIS-Tools package.
data_ErAl2
_symmetry_space_group_name_H-M  'Fd-3m'
_cell_length_a       5.53017
_cell_length_b       5.53016
_cell_length_c       5.53017
_cell_angle_alpha    60
_cell_angle_beta     60.0001
_cell_angle_gamma    60

_symmetry_Int_Tables_number  227
_chemical_formula_structural  ErAl2
_chemical_formula_sum  Er2Al4
_cell_volume  119.59145268786965
_cell_formula_units_Z  2
loop_
  _symmetry_equiv_pos_site_id
 _symmetry_equiv_pos_as_xyz
 1  'x, y, z'
loop_
 _atom_site_type_symbol
 _atom_site_label
 _atom_site_symmetry_multiplicity
 _atom_site_fract_x
 _atom_site_fract_y
 _atom_site_fract_z
 _atom_site_fract_occupancy
 Al  Al1  1  0.50000  0.00000  0.50000  1
 Al  Al2  1  -0.00000  0.50000  0.50000  1
 Al  Al3  1  0.50000  0.50000  0.50000  1
 Al  Al4  1  0.50000  0.50000  0.00000  1
 Er  Er1  1  0.12500  0.12500  0.12500  1
 Er  Er2  1  0.87500  0.87500  0.87500  1
