CIF file written using JARVIS-Tools package.
data_LaGe2PdRh
_symmetry_space_group_name_H-M  'P4/nmm'
_cell_length_a       4.30242
_cell_length_b       4.30242
_cell_length_c       10.4306
_cell_angle_alpha    90
_cell_angle_beta     90
_cell_angle_gamma    90

_symmetry_Int_Tables_number  129
_chemical_formula_structural  LaGe2PdRh
_chemical_formula_sum  La2Ge4Pd2Rh2
_cell_volume  193.07958615113745
_cell_formula_units_Z  2
loop_
  _symmetry_equiv_pos_site_id
 _symmetry_equiv_pos_as_xyz
 1  'x, y, z'
loop_
 _atom_site_type_symbol
 _atom_site_label
 _atom_site_symmetry_multiplicity
 _atom_site_fract_x
 _atom_site_fract_y
 _atom_site_fract_z
 _atom_site_fract_occupancy
 Ge  Ge1  1  0.00000  0.00000  0.50000  1
 Ge  Ge2  1  0.50000  0.50000  0.50000  1
 Ge  Ge3  1  0.00000  0.50000  0.87660  1
 Ge  Ge4  1  0.50000  0.00000  0.12340  1
 La  La1  1  0.00000  0.50000  0.25201  1
 La  La2  1  0.50000  0.00000  0.74799  1
 Pd  Pd1  1  0.00000  0.50000  0.63484  1
 Pd  Pd2  1  0.50000  0.00000  0.36516  1
 Rh  Rh1  1  0.00000  0.00000  0.00000  1
 Rh  Rh2  1  0.50000  0.50000  0.00000  1
