CIF file written using JARVIS-Tools package.
data_GaAgTeSe
_symmetry_space_group_name_H-M  'I2_12_12_1'
_cell_length_a       7.31996
_cell_length_b       7.31997
_cell_length_c       7.31996
_cell_angle_alpha    130.476
_cell_angle_beta     128.753
_cell_angle_gamma    74.0326

_symmetry_Int_Tables_number  24
_chemical_formula_structural  GaAgTeSe
_chemical_formula_sum  Ga2Ag2Te2Se2
_cell_volume  226.90511614758984
_cell_formula_units_Z  2
loop_
  _symmetry_equiv_pos_site_id
 _symmetry_equiv_pos_as_xyz
 1  'x, y, z'
loop_
 _atom_site_type_symbol
 _atom_site_label
 _atom_site_symmetry_multiplicity
 _atom_site_fract_x
 _atom_site_fract_y
 _atom_site_fract_z
 _atom_site_fract_occupancy
 Ag  Ag1  1  0.63940  0.38940  0.25000  1
 Ag  Ag2  1  0.86060  0.11060  0.75000  1
 Ga  Ga1  1  0.13092  0.88092  0.25000  1
 Ga  Ga2  1  0.36908  0.61908  0.75000  1
 Se  Se1  1  0.46624  0.25000  0.71624  1
 Se  Se2  1  0.03376  0.75000  0.78376  1
 Te  Te1  1  0.25000  0.51032  0.26032  1
 Te  Te2  1  0.75000  0.98968  0.23968  1
