CIF file written using JARVIS-Tools package.
data_CrCoB
_symmetry_space_group_name_H-M  'Fmmm'
_cell_length_a       5.08704
_cell_length_b       4.24755
_cell_length_c       4.06434
_cell_angle_alpha    75.4355
_cell_angle_beta     53.9149
_cell_angle_gamma    50.6499

_symmetry_Int_Tables_number  69
_chemical_formula_structural  CrCoB
_chemical_formula_sum  Cr2Co2B2
_cell_volume  53.82525483339751
_cell_formula_units_Z  2
loop_
  _symmetry_equiv_pos_site_id
 _symmetry_equiv_pos_as_xyz
 1  'x, y, z'
loop_
 _atom_site_type_symbol
 _atom_site_label
 _atom_site_symmetry_multiplicity
 _atom_site_fract_x
 _atom_site_fract_y
 _atom_site_fract_z
 _atom_site_fract_occupancy
 B  B1  1  0.75000  0.75000  0.75000  1
 B  B2  1  0.25000  0.25000  0.25000  1
 Co  Co1  1  0.16568  0.16568  0.83432  1
 Co  Co2  1  0.83432  0.83432  0.16568  1
 Cr  Cr1  1  0.33696  0.66304  0.33696  1
 Cr  Cr2  1  0.66304  0.33696  0.66304  1
