CIF file written using JARVIS-Tools package.
data_InCuGeS4
_symmetry_space_group_name_H-M  'I-4'
_cell_length_a       6.44203
_cell_length_b       6.44204
_cell_length_c       6.44204
_cell_angle_alpha    129.016
_cell_angle_beta     129.016
_cell_angle_gamma    74.9857

_symmetry_Int_Tables_number  82
_chemical_formula_structural  InCuGeS4
_chemical_formula_sum  InCuGeS4
_cell_volume  157.1667970952792
_cell_formula_units_Z  1
loop_
  _symmetry_equiv_pos_site_id
 _symmetry_equiv_pos_as_xyz
 1  'x, y, z'
loop_
 _atom_site_type_symbol
 _atom_site_label
 _atom_site_symmetry_multiplicity
 _atom_site_fract_x
 _atom_site_fract_y
 _atom_site_fract_z
 _atom_site_fract_occupancy
 Cu  Cu1  1  0.00000  0.00000  0.00000  1
 Ge  Ge1  1  0.75000  0.25000  0.50000  1
 In  In1  1  0.50000  0.50000  0.00000  1
 S  S1  1  0.37392  0.36975  0.46980  1
 S  S2  1  0.89994  0.90411  0.53020  1
 S  S3  1  0.63025  0.10006  0.00417  1
 S  S4  1  0.09589  0.62608  0.99583  1
