CIF file written using JARVIS-Tools package.
data_ErAgSe2
_symmetry_space_group_name_H-M  'P2_12_12_1'
_cell_length_a       4.20184
_cell_length_b       6.77107
_cell_length_c       13.6916
_cell_angle_alpha    90
_cell_angle_beta     90
_cell_angle_gamma    90

_symmetry_Int_Tables_number  19
_chemical_formula_structural  ErAgSe2
_chemical_formula_sum  Er4Ag4Se8
_cell_volume  389.5385290354974
_cell_formula_units_Z  4
loop_
  _symmetry_equiv_pos_site_id
 _symmetry_equiv_pos_as_xyz
 1  'x, y, z'
loop_
 _atom_site_type_symbol
 _atom_site_label
 _atom_site_symmetry_multiplicity
 _atom_site_fract_x
 _atom_site_fract_y
 _atom_site_fract_z
 _atom_site_fract_occupancy
 Ag  Ag1  1  0.50848  0.70856  0.87273  1
 Ag  Ag2  1  0.49152  0.20856  0.62727  1
 Ag  Ag3  1  0.00848  0.79144  0.12727  1
 Ag  Ag4  1  0.99152  0.29144  0.37273  1
 Er  Er1  1  0.21565  0.29232  0.12774  1
 Er  Er2  1  0.71565  0.20768  0.87226  1
 Er  Er3  1  0.78435  0.79232  0.37226  1
 Er  Er4  1  0.28435  0.70768  0.62774  1
 Se  Se1  1  0.77664  0.51085  0.52685  1
 Se  Se2  1  0.27664  0.98915  0.47315  1
 Se  Se3  1  0.22336  0.01085  0.97315  1
 Se  Se4  1  0.72336  0.48915  0.02685  1
 Se  Se5  1  0.78415  0.91387  0.72579  1
 Se  Se6  1  0.71585  0.08613  0.22579  1
 Se  Se7  1  0.21585  0.41387  0.77421  1
 Se  Se8  1  0.28415  0.58613  0.27421  1
