CIF file written using JARVIS-Tools package.
data_VBr2O
_symmetry_space_group_name_H-M  'Immm'
_cell_length_a       3.65878
_cell_length_b       3.61845
_cell_length_c       6.85852
_cell_angle_alpha    105.322
_cell_angle_beta     105.454
_cell_angle_gamma    90.0004

_symmetry_Int_Tables_number  71
_chemical_formula_structural  VBr2O
_chemical_formula_sum  VBr2O
_cell_volume  84.16498399599261
_cell_formula_units_Z  1
loop_
  _symmetry_equiv_pos_site_id
 _symmetry_equiv_pos_as_xyz
 1  'x, y, z'
loop_
 _atom_site_type_symbol
 _atom_site_label
 _atom_site_symmetry_multiplicity
 _atom_site_fract_x
 _atom_site_fract_y
 _atom_site_fract_z
 _atom_site_fract_occupancy
 Br  Br1  1  0.35952  0.85912  0.71876  1
 Br  Br2  1  0.64048  0.14088  0.28124  1
 O  O1  1  1.00000  0.50000  -0.00000  1
 V  V1  1  0.00000  -0.00000  -0.00000  1
