CIF file written using JARVIS-Tools package.
data_YSi2Ni
_symmetry_space_group_name_H-M  'Cmcm'
_cell_length_a       8.45098
_cell_length_b       8.45099
_cell_length_c       3.97606
_cell_angle_alpha    90
_cell_angle_beta     90
_cell_angle_gamma    152.606

_symmetry_Int_Tables_number  63
_chemical_formula_structural  YSi2Ni
_chemical_formula_sum  Y2Si4Ni2
_cell_volume  130.6554700051411
_cell_formula_units_Z  2
loop_
  _symmetry_equiv_pos_site_id
 _symmetry_equiv_pos_as_xyz
 1  'x, y, z'
loop_
 _atom_site_type_symbol
 _atom_site_label
 _atom_site_symmetry_multiplicity
 _atom_site_fract_x
 _atom_site_fract_y
 _atom_site_fract_z
 _atom_site_fract_occupancy
 Ni  Ni1  1  0.82200  0.17800  0.75000  1
 Ni  Ni2  1  0.17800  0.82200  0.25000  1
 Si  Si1  1  0.95973  0.04027  0.75000  1
 Si  Si2  1  0.04027  0.95973  0.25000  1
 Si  Si3  1  0.24989  0.75011  0.75000  1
 Si  Si4  1  0.75011  0.24989  0.25000  1
 Y  Y1  1  0.60527  0.39473  0.75000  1
 Y  Y2  1  0.39473  0.60527  0.25000  1
