CIF file written using JARVIS-Tools package.
data_SmThCN
_symmetry_space_group_name_H-M  'R3m'
_cell_length_a       6.36839
_cell_length_b       6.36839
_cell_length_c       6.36839
_cell_angle_alpha    33.8917
_cell_angle_beta     33.8917
_cell_angle_gamma    33.8916

_symmetry_Int_Tables_number  160
_chemical_formula_structural  SmThCN
_chemical_formula_sum  SmThCN
_cell_volume  71.57393719617345
_cell_formula_units_Z  1
loop_
  _symmetry_equiv_pos_site_id
 _symmetry_equiv_pos_as_xyz
 1  'x, y, z'
loop_
 _atom_site_type_symbol
 _atom_site_label
 _atom_site_symmetry_multiplicity
 _atom_site_fract_x
 _atom_site_fract_y
 _atom_site_fract_z
 _atom_site_fract_occupancy
 C  C1  1  0.99747  0.99747  0.99747  1
 N  N1  1  0.50363  0.50363  0.50363  1
 Sm  Sm1  1  0.74984  0.74984  0.74984  1
 Th  Th1  1  0.24906  0.24906  0.24906  1
