CIF file written using JARVIS-Tools package.
data_Li3GaN2
_symmetry_space_group_name_H-M  'Ia-3'
_cell_length_a       8.31178
_cell_length_b       8.31178
_cell_length_c       8.31177
_cell_angle_alpha    109.471
_cell_angle_beta     109.471
_cell_angle_gamma    109.471

_symmetry_Int_Tables_number  206
_chemical_formula_structural  Li3GaN2
_chemical_formula_sum  Li24Ga8N6
_cell_volume  442.0377751904016
_cell_formula_units_Z  8
loop_
  _symmetry_equiv_pos_site_id
 _symmetry_equiv_pos_as_xyz
 1  'x, y, z'
loop_
 _atom_site_type_symbol
 _atom_site_label
 _atom_site_symmetry_multiplicity
 _atom_site_fract_x
 _atom_site_fract_y
 _atom_site_fract_z
 _atom_site_fract_occupancy
 Ga  Ga1  1  0.50000  0.00000  0.73783  1
 Ga  Ga2  1  0.73783  0.50000  -0.00000  1
 Ga  Ga3  1  -0.00000  0.26217  0.50000  1
 Ga  Ga4  1  0.50000  0.00000  0.26217  1
 Ga  Ga5  1  0.26217  0.50000  0.00000  1
 Ga  Ga6  1  0.76217  0.76217  0.76217  1
 Ga  Ga7  1  0.00000  0.73783  0.50000  1
 Ga  Ga8  1  0.23783  0.23783  0.23783  1
 Li  Li1  1  0.99462  0.47010  0.23345  1
 Li  Li2  1  0.76116  0.26655  0.73664  1
 Li  Li3  1  0.26655  0.73664  0.76116  1
 Li  Li4  1  0.47010  0.23345  0.99462  1
 Li  Li5  1  0.02452  0.76336  0.02990  1
 Li  Li6  1  0.76336  0.02990  0.02452  1
 Li  Li7  1  0.23345  0.99462  0.47010  1
 Li  Li8  1  0.47548  0.50538  0.73884  1
 Li  Li9  1  0.50538  0.73884  0.47548  1
 Li  Li10  1  0.73664  0.76116  0.26655  1
 Li  Li11  1  0.73884  0.47548  0.50538  1
 Li  Li12  1  0.97010  0.97548  0.23664  1
 Li  Li13  1  0.73345  0.26336  0.23884  1
 Li  Li14  1  0.52990  0.76655  0.00538  1
 Li  Li15  1  0.49462  0.26116  0.52452  1
 Li  Li16  1  0.76655  0.00538  0.52990  1
 Li  Li17  1  0.52452  0.49462  0.26116  1
 Li  Li18  1  0.23884  0.73345  0.26336  1
 Li  Li19  1  0.23664  0.97010  0.97548  1
 Li  Li20  1  0.26336  0.23884  0.73345  1
 Li  Li21  1  0.00538  0.52990  0.76655  1
 Li  Li22  1  0.97548  0.23664  0.97010  1
 Li  Li23  1  0.02990  0.02452  0.76336  1
 Li  Li24  1  0.26116  0.52452  0.49462  1
 N  N1  1  0.25000  0.98033  0.73033  1
 N  N2  1  0.75000  0.51967  0.76967  1
 N  N3  1  0.76967  0.75000  0.51967  1
 N  N4  1  0.51967  0.76967  0.75000  1
 N  N5  1  0.73033  0.25000  0.98033  1
 N  N6  1  0.23033  0.25000  0.48033  1
 N  N7  1  0.00000  0.00000  0.00000  1
 N  N8  1  0.48033  0.23033  0.25000  1
 N  N9  1  0.25000  0.48033  0.23033  1
 N  N10  1  0.50000  0.50000  -0.00000  1
 N  N11  1  0.50000  0.00000  0.50000  1
 N  N12  1  -0.00000  0.50000  0.50000  1
 N  N13  1  0.98033  0.73033  0.25000  1
 N  N14  1  0.75000  0.01967  0.26967  1
 N  N15  1  0.01967  0.26967  0.75000  1
 N  N16  1  0.26967  0.75000  0.01967  1
