CIF file written using JARVIS-Tools package.
data_CuAsO3
_symmetry_space_group_name_H-M  'Pmma'
_cell_length_a       3.24728
_cell_length_b       4.75735
_cell_length_c       8.33824
_cell_angle_alpha    90
_cell_angle_beta     90
_cell_angle_gamma    90

_symmetry_Int_Tables_number  51
_chemical_formula_structural  CuAsO3
_chemical_formula_sum  Cu2As2O6
_cell_volume  128.81278398002243
_cell_formula_units_Z  2
loop_
  _symmetry_equiv_pos_site_id
 _symmetry_equiv_pos_as_xyz
 1  'x, y, z'
loop_
 _atom_site_type_symbol
 _atom_site_label
 _atom_site_symmetry_multiplicity
 _atom_site_fract_x
 _atom_site_fract_y
 _atom_site_fract_z
 _atom_site_fract_occupancy
 As  As1  1  0.50000  0.06363  0.25000  1
 As  As2  1  0.50000  0.93637  0.75000  1
 Cu  Cu1  1  0.00000  0.50000  0.00000  1
 Cu  Cu2  1  0.00000  0.50000  0.50000  1
 O  O1  1  0.00000  0.12470  0.75000  1
 O  O2  1  0.50000  0.28853  0.41712  1
 O  O3  1  0.50000  0.28853  0.08288  1
 O  O4  1  0.50000  0.71147  0.58288  1
 O  O5  1  0.50000  0.71147  0.91712  1
 O  O6  1  0.00000  0.87530  0.25000  1
