CIF file written using JARVIS-Tools package.
data_CeCo4Cu
_symmetry_space_group_name_H-M  'P-6m2'
_cell_length_a       4.90429
_cell_length_b       4.90429
_cell_length_c       3.99703
_cell_angle_alpha    90
_cell_angle_beta     90
_cell_angle_gamma    120

_symmetry_Int_Tables_number  187
_chemical_formula_structural  CeCo4Cu
_chemical_formula_sum  CeCo4Cu
_cell_volume  83.25704228696017
_cell_formula_units_Z  1
loop_
  _symmetry_equiv_pos_site_id
 _symmetry_equiv_pos_as_xyz
 1  'x, y, z'
loop_
 _atom_site_type_symbol
 _atom_site_label
 _atom_site_symmetry_multiplicity
 _atom_site_fract_x
 _atom_site_fract_y
 _atom_site_fract_z
 _atom_site_fract_occupancy
 Ce  Ce1  1  0.00000  0.00000  0.00000  1
 Co  Co1  1  0.66667  0.33333  0.00000  1
 Co  Co2  1  0.99808  0.49904  0.50000  1
 Co  Co3  1  0.50096  0.49904  0.50000  1
 Co  Co4  1  0.50096  0.00192  0.50000  1
 Cu  Cu1  1  0.33333  0.66667  0.00000  1
