CIF file written using JARVIS-Tools package.
data_ZnNi4S8
_symmetry_space_group_name_H-M  'R-3m'
_cell_length_a       6.91368
_cell_length_b       6.91368
_cell_length_c       6.91368
_cell_angle_alpha    58.2223
_cell_angle_beta     58.2224
_cell_angle_gamma    58.2223

_symmetry_Int_Tables_number  166
_chemical_formula_structural  ZnNi4S8
_chemical_formula_sum  ZnNi4S8
_cell_volume  224.15838519667057
_cell_formula_units_Z  1
loop_
  _symmetry_equiv_pos_site_id
 _symmetry_equiv_pos_as_xyz
 1  'x, y, z'
loop_
 _atom_site_type_symbol
 _atom_site_label
 _atom_site_symmetry_multiplicity
 _atom_site_fract_x
 _atom_site_fract_y
 _atom_site_fract_z
 _atom_site_fract_occupancy
 Ni  Ni1  1  0.50000  1.00000  0.50000  1
 Ni  Ni2  1  1.00000  0.50000  0.50000  1
 Ni  Ni3  1  0.50000  0.50000  -0.00000  1
 Ni  Ni4  1  0.00000  0.00000  0.00000  1
 S  S1  1  0.75858  0.26999  0.75858  1
 S  S2  1  0.24142  0.24142  0.73001  1
 S  S3  1  0.24142  0.73001  0.24142  1
 S  S4  1  0.73001  0.24142  0.24142  1
 S  S5  1  0.26262  0.26262  0.26262  1
 S  S6  1  0.73738  0.73738  0.73738  1
 S  S7  1  0.26999  0.75858  0.75858  1
 S  S8  1  0.75858  0.75858  0.26999  1
 Zn  Zn1  1  0.50000  0.50000  0.50000  1
