CIF file written using JARVIS-Tools package.
data_V2CdO6
_symmetry_space_group_name_H-M  'C2/m'
_cell_length_a       5.06682
_cell_length_b       5.06682
_cell_length_c       7.00896
_cell_angle_alpha    68.625
_cell_angle_beta     68.625
_cell_angle_gamma    41.1726

_symmetry_Int_Tables_number  12
_chemical_formula_structural  V2CdO6
_chemical_formula_sum  V2CdO6
_cell_volume  109.1123463702514
_cell_formula_units_Z  1
loop_
  _symmetry_equiv_pos_site_id
 _symmetry_equiv_pos_as_xyz
 1  'x, y, z'
loop_
 _atom_site_type_symbol
 _atom_site_label
 _atom_site_symmetry_multiplicity
 _atom_site_fract_x
 _atom_site_fract_y
 _atom_site_fract_z
 _atom_site_fract_occupancy
 Cd  Cd1  1  0.00000  0.00000  0.00000  1
 O  O1  1  0.97497  0.97497  0.69457  1
 O  O2  1  0.69291  0.69291  0.43851  1
 O  O3  1  0.30709  0.30709  0.56149  1
 O  O4  1  0.66846  0.66846  0.87164  1
 O  O5  1  0.33154  0.33154  0.12836  1
 O  O6  1  0.02503  0.02503  0.30543  1
 V  V1  1  0.81705  0.81705  0.63623  1
 V  V2  1  0.18295  0.18295  0.36377  1
