CIF file written using JARVIS-Tools package.
data_YScB2O6
_symmetry_space_group_name_H-M  'R-3'
_cell_length_a       6.00915
_cell_length_b       6.00916
_cell_length_c       6.00916
_cell_angle_alpha    48.057
_cell_angle_beta     48.057
_cell_angle_gamma    48.057

_symmetry_Int_Tables_number  148
_chemical_formula_structural  YScB2O6
_chemical_formula_sum  YScB2O6
_cell_volume  109.99563367023036
_cell_formula_units_Z  1
loop_
  _symmetry_equiv_pos_site_id
 _symmetry_equiv_pos_as_xyz
 1  'x, y, z'
loop_
 _atom_site_type_symbol
 _atom_site_label
 _atom_site_symmetry_multiplicity
 _atom_site_fract_x
 _atom_site_fract_y
 _atom_site_fract_z
 _atom_site_fract_occupancy
 B  B1  1  0.74511  0.74511  0.74511  1
 B  B2  1  0.25489  0.25489  0.25489  1
 O  O1  1  0.01971  0.45436  0.76528  1
 O  O2  1  0.45436  0.76528  0.01971  1
 O  O3  1  0.76528  0.01971  0.45436  1
 O  O4  1  0.54564  0.23472  0.98029  1
 O  O5  1  0.23472  0.98029  0.54564  1
 O  O6  1  0.98029  0.54564  0.23472  1
 Sc  Sc1  1  0.00000  0.00000  0.00000  1
 Y  Y1  1  0.50000  0.50000  0.50000  1
