CIF file written using JARVIS-Tools package.
data_Ti3B4Mo3
_symmetry_space_group_name_H-M  'Amm2'
_cell_length_a       5.9942
_cell_length_b       5.9942
_cell_length_c       3.16564
_cell_angle_alpha    90
_cell_angle_beta     90
_cell_angle_gamma    90.5381

_symmetry_Int_Tables_number  38
_chemical_formula_structural  Ti3B4Mo3
_chemical_formula_sum  Ti3B4Mo3
_cell_volume  113.73752577324994
_cell_formula_units_Z  1
loop_
  _symmetry_equiv_pos_site_id
 _symmetry_equiv_pos_as_xyz
 1  'x, y, z'
loop_
 _atom_site_type_symbol
 _atom_site_label
 _atom_site_symmetry_multiplicity
 _atom_site_fract_x
 _atom_site_fract_y
 _atom_site_fract_z
 _atom_site_fract_occupancy
 B  B1  1  0.39201  0.60799  0.00000  1
 B  B2  1  0.60757  0.39243  0.00000  1
 B  B3  1  0.10731  0.10746  0.00000  1
 B  B4  1  0.89254  0.89269  0.00000  1
 Mo  Mo1  1  0.17969  0.82031  0.50000  1
 Mo  Mo2  1  0.67684  0.67857  0.50000  1
 Mo  Mo3  1  0.32143  0.32316  0.50000  1
 Ti  Ti1  1  0.49978  0.00132  0.00000  1
 Ti  Ti2  1  0.99868  0.50022  0.00000  1
 Ti  Ti3  1  0.82413  0.17587  0.50000  1
