CIF file written using JARVIS-Tools package.
data_P4PtF12
_symmetry_space_group_name_H-M  'I-43m'
_cell_length_a       7.0552
_cell_length_b       7.0552
_cell_length_c       7.0552
_cell_angle_alpha    109.471
_cell_angle_beta     109.471
_cell_angle_gamma    109.471

_symmetry_Int_Tables_number  217
_chemical_formula_structural  P4PtF12
_chemical_formula_sum  P4PtF2
_cell_volume  270.3379174360073
_cell_formula_units_Z  1
loop_
  _symmetry_equiv_pos_site_id
 _symmetry_equiv_pos_as_xyz
 1  'x, y, z'
loop_
 _atom_site_type_symbol
 _atom_site_label
 _atom_site_symmetry_multiplicity
 _atom_site_fract_x
 _atom_site_fract_y
 _atom_site_fract_z
 _atom_site_fract_occupancy
 F  F1  1  -0.00000  0.50158  0.79284  1
 F  F2  1  0.49842  0.49842  0.29126  1
 F  F3  1  -0.00000  0.79284  0.50158  1
 F  F4  1  0.20716  0.70874  0.20716  1
 F  F5  1  0.79284  0.00000  0.50158  1
 F  F6  1  0.29126  0.49842  0.49842  1
 F  F7  1  0.20716  0.20716  0.70874  1
 F  F8  1  0.70874  0.20716  0.20716  1
 F  F9  1  0.50158  0.00000  0.79284  1
 F  F10  1  0.79284  0.50158  0.00000  1
 F  F11  1  0.49842  0.29126  0.49842  1
 F  F12  1  0.50158  0.79284  0.00000  1
 P  P1  1  0.31929  0.31929  0.31929  1
 P  P2  1  0.68071  0.00000  0.00000  1
 P  P3  1  0.00000  0.68071  -0.00000  1
 P  P4  1  -0.00000  -0.00000  0.68071  1
 Pt  Pt1  1  0.00000  0.00000  0.00000  1
