CIF file written using JARVIS-Tools package.
data_TaTl3Se2S2
_symmetry_space_group_name_H-M  'Fmm2'
_cell_length_a       7.84087
_cell_length_b       6.95775
_cell_length_c       6.64635
_cell_angle_alpha    70.3475
_cell_angle_beta     56.6867
_cell_angle_gamma    52.9659

_symmetry_Int_Tables_number  42
_chemical_formula_structural  TaTl3Se2S2
_chemical_formula_sum  TaTl3Se2S2
_cell_volume  241.87732050679836
_cell_formula_units_Z  1
loop_
  _symmetry_equiv_pos_site_id
 _symmetry_equiv_pos_as_xyz
 1  'x, y, z'
loop_
 _atom_site_type_symbol
 _atom_site_label
 _atom_site_symmetry_multiplicity
 _atom_site_fract_x
 _atom_site_fract_y
 _atom_site_fract_z
 _atom_site_fract_occupancy
 S  S1  1  0.01108  -0.01108  0.33220  1
 S  S2  1  0.66780  0.33220  -0.01108  1
 Se  Se1  1  0.00641  0.64055  -0.00641  1
 Se  Se2  1  0.35945  -0.00641  0.64055  1
 Ta  Ta1  1  0.01065  -0.01065  -0.01065  1
 Tl  Tl1  1  0.46310  0.03690  0.03690  1
 Tl  Tl2  1  0.96310  0.53690  0.53690  1
 Tl  Tl3  1  0.51840  0.48160  0.48160  1
