CIF file written using JARVIS-Tools package.
data_ZnCdSe2
_symmetry_space_group_name_H-M  'R3m'
_cell_length_a       7.33795
_cell_length_b       7.33795
_cell_length_c       7.33795
_cell_angle_alpha    33.2507
_cell_angle_beta     33.2507
_cell_angle_gamma    33.2508

_symmetry_Int_Tables_number  160
_chemical_formula_structural  ZnCdSe2
_chemical_formula_sum  ZnCdSe2
_cell_volume  105.75274800423665
_cell_formula_units_Z  1
loop_
  _symmetry_equiv_pos_site_id
 _symmetry_equiv_pos_as_xyz
 1  'x, y, z'
loop_
 _atom_site_type_symbol
 _atom_site_label
 _atom_site_symmetry_multiplicity
 _atom_site_fract_x
 _atom_site_fract_y
 _atom_site_fract_z
 _atom_site_fract_occupancy
 Cd  Cd1  1  0.00188  0.00188  0.00188  1
 Se  Se1  1  0.13021  0.13021  0.13021  1
 Se  Se2  1  0.61844  0.61844  0.61844  1
 Zn  Zn1  1  0.49946  0.49946  0.49946  1
