CIF file written using JARVIS-Tools package.
data_SrLaAlO4
_symmetry_space_group_name_H-M  'I4mm'
_cell_length_a       6.82584
_cell_length_b       6.82584
_cell_length_c       6.82584
_cell_angle_alpha    147.868
_cell_angle_beta     147.868
_cell_angle_gamma    46.0803

_symmetry_Int_Tables_number  107
_chemical_formula_structural  SrLaAlO4
_chemical_formula_sum  SrLaAlO4
_cell_volume  89.6565469306863
_cell_formula_units_Z  1
loop_
  _symmetry_equiv_pos_site_id
 _symmetry_equiv_pos_as_xyz
 1  'x, y, z'
loop_
 _atom_site_type_symbol
 _atom_site_label
 _atom_site_symmetry_multiplicity
 _atom_site_fract_x
 _atom_site_fract_y
 _atom_site_fract_z
 _atom_site_fract_occupancy
 Al  Al1  1  0.00555  0.00555  0.00000  1
 La  La1  1  0.35802  0.35802  -0.00000  1
 O  O1  1  0.83887  0.83887  0.00000  1
 O  O2  1  0.16337  0.16337  -0.00000  1
 O  O3  1  0.99583  0.49583  0.50000  1
 O  O4  1  0.49583  0.99583  0.50000  1
 Sr  Sr1  1  0.64253  0.64253  0.00000  1
