CIF file written using JARVIS-Tools package.
data_SnSbPt
_symmetry_space_group_name_H-M  'P2/m'
_cell_length_a       3.98113
_cell_length_b       5.50409
_cell_length_c       6.70541
_cell_angle_alpha    88.4425
_cell_angle_beta     90
_cell_angle_gamma    90

_symmetry_Int_Tables_number  10
_chemical_formula_structural  SnSbPt
_chemical_formula_sum  Sn2Sb2Pt2
_cell_volume  146.87829587881336
_cell_formula_units_Z  2
loop_
  _symmetry_equiv_pos_site_id
 _symmetry_equiv_pos_as_xyz
 1  'x, y, z'
loop_
 _atom_site_type_symbol
 _atom_site_label
 _atom_site_symmetry_multiplicity
 _atom_site_fract_x
 _atom_site_fract_y
 _atom_site_fract_z
 _atom_site_fract_occupancy
 Pt  Pt1  1  0.50000  0.50000  0.50000  1
 Pt  Pt2  1  0.00000  0.00000  0.00000  1
 Sb  Sb1  1  0.50000  0.29402  0.86634  1
 Sb  Sb2  1  0.50000  0.70598  0.13366  1
 Sn  Sn1  1  0.00000  0.78998  0.63739  1
 Sn  Sn2  1  0.00000  0.21002  0.36261  1
