CIF file written using JARVIS-Tools package.
data_MoCl2O
_symmetry_space_group_name_H-M  'Immm'
_cell_length_a       6.76661
_cell_length_b       6.76661
_cell_length_c       6.76661
_cell_angle_alpha    152.656
_cell_angle_beta     147.692
_cell_angle_gamma    42.823

_symmetry_Int_Tables_number  71
_chemical_formula_structural  MoCl2O
_chemical_formula_sum  MoCl2O
_cell_volume  75.87085694881596
_cell_formula_units_Z  1
loop_
  _symmetry_equiv_pos_site_id
 _symmetry_equiv_pos_as_xyz
 1  'x, y, z'
loop_
 _atom_site_type_symbol
 _atom_site_label
 _atom_site_symmetry_multiplicity
 _atom_site_fract_x
 _atom_site_fract_y
 _atom_site_fract_z
 _atom_site_fract_occupancy
 Cl  Cl1  1  0.85262  0.35262  0.50000  1
 Cl  Cl2  1  0.14738  0.64738  0.50000  1
 Mo  Mo1  1  0.00000  0.00000  0.00000  1
 O  O1  1  0.50000  -0.00000  0.50000  1
