CIF file written using JARVIS-Tools package.
data_Li4AlCr3O8
_symmetry_space_group_name_H-M  'P-1'
_cell_length_a       5.0371
_cell_length_b       5.04187
_cell_length_c       5.81571
_cell_angle_alpha    106.766
_cell_angle_beta     90.0101
_cell_angle_gamma    99.5816

_symmetry_Int_Tables_number  2
_chemical_formula_structural  Li4AlCr3O8
_chemical_formula_sum  Li4AlCr3O8
_cell_volume  139.26451751772677
_cell_formula_units_Z  1
loop_
  _symmetry_equiv_pos_site_id
 _symmetry_equiv_pos_as_xyz
 1  'x, y, z'
loop_
 _atom_site_type_symbol
 _atom_site_label
 _atom_site_symmetry_multiplicity
 _atom_site_fract_x
 _atom_site_fract_y
 _atom_site_fract_z
 _atom_site_fract_occupancy
 Al  Al1  1  0.50000  0.50000  0.00000  1
 Cr  Cr1  1  0.99987  0.49927  0.75168  1
 Cr  Cr2  1  0.50000  0.50000  0.50000  1
 Cr  Cr3  1  0.00013  0.50073  0.24832  1
 Li  Li1  1  0.75086  0.00030  0.87597  1
 Li  Li2  1  0.25267  0.99818  0.62559  1
 Li  Li3  1  0.74733  0.00182  0.37441  1
 Li  Li4  1  0.24914  0.99970  0.12403  1
 O  O1  1  0.62420  0.27704  0.70212  1
 O  O2  1  0.37504  0.72104  0.81329  1
 O  O3  1  0.12816  0.27358  0.44303  1
 O  O4  1  0.87184  0.72642  0.55697  1
 O  O5  1  0.62496  0.27896  0.18671  1
 O  O6  1  0.37580  0.72296  0.29788  1
 O  O7  1  0.14068  0.27709  0.94465  1
 O  O8  1  0.85932  0.72291  0.05535  1
