CIF file written using JARVIS-Tools package.
data_SbSI
_symmetry_space_group_name_H-M  'P2_12_12_1'
_cell_length_a       4.10438
_cell_length_b       9.41855
_cell_length_c       10.2687
_cell_angle_alpha    89.9972
_cell_angle_beta     89.9966
_cell_angle_gamma    89.9962

_symmetry_Int_Tables_number  19
_chemical_formula_structural  SbSI
_chemical_formula_sum  Sb4S4I4
_cell_volume  396.9583858656321
_cell_formula_units_Z  4
loop_
  _symmetry_equiv_pos_site_id
 _symmetry_equiv_pos_as_xyz
 1  'x, y, z'
loop_
 _atom_site_type_symbol
 _atom_site_label
 _atom_site_symmetry_multiplicity
 _atom_site_fract_x
 _atom_site_fract_y
 _atom_site_fract_z
 _atom_site_fract_occupancy
 I  I1  1  0.75592  0.29766  0.66677  1
 I  I2  1  0.74419  0.70233  0.16677  1
 I  I3  1  0.25581  0.20234  0.33323  1
 I  I4  1  0.24408  0.79767  0.83323  1
 S  S1  1  0.75576  0.09492  0.02636  1
 S  S2  1  0.74422  0.90508  0.52635  1
 S  S3  1  0.25573  0.40508  0.97364  1
 S  S4  1  0.24428  0.59492  0.47365  1
 Sb  Sb1  1  0.75539  0.33641  0.13583  1
 Sb  Sb2  1  0.74453  0.66359  0.63584  1
 Sb  Sb3  1  0.25548  0.16359  0.86416  1
 Sb  Sb4  1  0.24459  0.83641  0.36416  1
