CIF file written using JARVIS-Tools package.
data_U8FeS17
_symmetry_space_group_name_H-M  'C2/m'
_cell_length_a       7.68154
_cell_length_b       7.68154
_cell_length_c       10.157
_cell_angle_alpha    80.4859
_cell_angle_beta     80.4858
_cell_angle_gamma    64.5111

_symmetry_Int_Tables_number  12
_chemical_formula_structural  U8FeS17
_chemical_formula_sum  U8FeS7
_cell_volume  530.5549629214685
_cell_formula_units_Z  1
loop_
  _symmetry_equiv_pos_site_id
 _symmetry_equiv_pos_as_xyz
 1  'x, y, z'
loop_
 _atom_site_type_symbol
 _atom_site_label
 _atom_site_symmetry_multiplicity
 _atom_site_fract_x
 _atom_site_fract_y
 _atom_site_fract_z
 _atom_site_fract_occupancy
 Fe  Fe1  1  0.00000  0.00000  0.00000  1
 S  S1  1  0.68114  0.05747  0.97640  1
 S  S2  1  0.47840  0.47840  0.16939  1
 S  S3  1  0.05747  0.68114  0.97640  1
 S  S4  1  0.78350  0.78350  0.72218  1
 S  S5  1  0.81741  0.43493  0.53728  1
 S  S6  1  0.21650  0.21650  0.27782  1
 S  S7  1  0.94253  0.31886  0.02360  1
 S  S8  1  0.18259  0.56507  0.46272  1
 S  S9  1  0.56507  0.18259  0.46272  1
 S  S10  1  0.94358  0.94358  0.22254  1
 S  S11  1  0.31886  0.94253  0.02360  1
 S  S12  1  0.05642  0.05642  0.77746  1
 S  S13  1  0.70155  0.70155  0.24114  1
 S  S14  1  0.52160  0.52160  0.83061  1
 S  S15  1  0.43493  0.81741  0.53728  1
 S  S16  1  -0.00000  -0.00000  0.50000  1
 S  S17  1  0.29845  0.29845  0.75886  1
 U  U1  1  0.69885  0.17925  0.70396  1
 U  U2  1  0.30115  0.82075  0.29604  1
 U  U3  1  0.68389  0.68389  0.98265  1
 U  U4  1  0.82075  0.30115  0.29604  1
 U  U5  1  0.79748  0.79748  0.45393  1
 U  U6  1  0.31611  0.31611  0.01735  1
 U  U7  1  0.17925  0.69885  0.70396  1
 U  U8  1  0.20252  0.20252  0.54607  1
