data_image0
_chemical_formula_structural       N5Nb4
_chemical_formula_sum              "N5 Nb4"
_cell_length_a       4.30545
_cell_length_b       5.33362
_cell_length_c       5.33362
_cell_angle_alpha    99.3755
_cell_angle_beta     66.1957
_cell_angle_gamma    113.804

_space_group_name_H-M_alt    "P 1"
_space_group_IT_number       1

loop_
  _space_group_symop_operation_xyz
  'x, y, z'

loop_
  _atom_site_type_symbol
  _atom_site_label
  _atom_site_symmetry_multiplicity
  _atom_site_fract_x
  _atom_site_fract_y
  _atom_site_fract_z
  _atom_site_occupancy
  N   N1        1.0  0.50000  0.00000  0.00000  1.0000
  N   N2        1.0  0.09200  0.39700  0.21300  1.0000
  N   N3        1.0  0.69500  0.78700  0.39700  1.0000
  N   N4        1.0  0.30500  0.21300  0.60300  1.0000
  N   N5        1.0  0.90800  0.60300  0.78700  1.0000
  Nb  Nb1       1.0  0.60500  0.38900  0.18000  1.0000
  Nb  Nb2       1.0  0.21500  0.82000  0.38900  1.0000
  Nb  Nb3       1.0  0.78500  0.18000  0.61100  1.0000
  Nb  Nb4       1.0  0.39500  0.61100  0.82000  1.0000
