data_image0
_chemical_formula_structural       Ge3Li3Yb3
_chemical_formula_sum              "Ge3 Li3 Yb3"
_cell_length_a       6.99707
_cell_length_b       6.99707
_cell_length_c       4.49906
_cell_angle_alpha    90
_cell_angle_beta     90
_cell_angle_gamma    120.007

_space_group_name_H-M_alt    "P 1"
_space_group_IT_number       1

loop_
  _space_group_symop_operation_xyz
  'x, y, z'

loop_
  _atom_site_type_symbol
  _atom_site_label
  _atom_site_symmetry_multiplicity
  _atom_site_fract_x
  _atom_site_fract_y
  _atom_site_fract_z
  _atom_site_occupancy
  Ge  Ge1       1.0  0.00000  0.00000  0.00000  1.0000
  Ge  Ge2       1.0  0.66700  0.33300  0.50000  1.0000
  Ge  Ge3       1.0  0.33300  0.66700  0.50000  1.0000
  Li  Li1       1.0  0.22700  0.00001  0.50000  1.0000
  Li  Li2       1.0  0.00001  0.22700  0.50000  1.0000
  Li  Li3       1.0  0.77300  0.77300  0.50000  1.0000
  Yb  Yb1       1.0  0.56900  0.00001  0.00000  1.0000
  Yb  Yb2       1.0  0.43100  0.43100  0.00000  1.0000
  Yb  Yb3       1.0  0.00002  0.56900  0.00000  1.0000
