data_image0
_chemical_formula_structural       Ge6LiPr2
_chemical_formula_sum              "Ge6 Li1 Pr2"
_cell_length_a       4.1449
_cell_length_b       4.27675
_cell_length_c       10.9548
_cell_angle_alpha    90
_cell_angle_beta     79.0949
_cell_angle_gamma    90

_space_group_name_H-M_alt    "P 1"
_space_group_IT_number       1

loop_
  _space_group_symop_operation_xyz
  'x, y, z'

loop_
  _atom_site_type_symbol
  _atom_site_label
  _atom_site_symmetry_multiplicity
  _atom_site_fract_x
  _atom_site_fract_y
  _atom_site_fract_z
  _atom_site_occupancy
  Ge  Ge1       1.0  0.43900  0.00000  0.12300  1.0000
  Ge  Ge2       1.0  0.93800  0.50000  0.12300  1.0000
  Ge  Ge3       1.0  0.28700  0.50000  0.42600  1.0000
  Ge  Ge4       1.0  0.71300  0.50000  0.57400  1.0000
  Ge  Ge5       1.0  0.06160  0.50000  0.87700  1.0000
  Ge  Ge6       1.0  0.56100  0.00000  0.87700  1.0000
  Li  Li1       1.0  0.00000  0.00000  0.00000  1.0000
  Pr  Pr1       1.0  0.83300  0.00000  0.33300  1.0000
  Pr  Pr2       1.0  0.16700  0.00000  0.66700  1.0000
