data_image0
_chemical_formula_structural       Cs2Ni3Se4
_chemical_formula_sum              "Cs2 Ni3 Se4"
_cell_length_a       6.14947
_cell_length_b       6.14947
_cell_length_c       8.03178
_cell_angle_alpha    101.365
_cell_angle_beta     101.365
_cell_angle_gamma    119.029

_space_group_name_H-M_alt    "P 1"
_space_group_IT_number       1

loop_
  _space_group_symop_operation_xyz
  'x, y, z'

loop_
  _atom_site_type_symbol
  _atom_site_label
  _atom_site_symmetry_multiplicity
  _atom_site_fract_x
  _atom_site_fract_y
  _atom_site_fract_z
  _atom_site_occupancy
  Cs  Cs1       1.0  0.65800  0.65800  0.31600  1.0000
  Cs  Cs2       1.0  0.34200  0.34200  0.68400  1.0000
  Ni  Ni1       1.0  0.00000  0.00000  0.00000  1.0000
  Ni  Ni2       1.0  0.50000  0.00000  0.00000  1.0000
  Ni  Ni3       1.0  0.00000  0.50000  0.00000  1.0000
  Se  Se1       1.0  0.93500  0.27100  0.20600  1.0000
  Se  Se2       1.0  0.27100  0.93500  0.20600  1.0000
  Se  Se3       1.0  0.72900  0.06480  0.79400  1.0000
  Se  Se4       1.0  0.06480  0.72900  0.79400  1.0000
