data_image0
_chemical_formula_structural       ErKTe2
_chemical_formula_sum              "Er1 K1 Te2"
_cell_length_a       4.46193
_cell_length_b       4.46193
_cell_length_c       8.58699
_cell_angle_alpha    90
_cell_angle_beta     105.059
_cell_angle_gamma    60

_space_group_name_H-M_alt    "P 1"
_space_group_IT_number       1

loop_
  _space_group_symop_operation_xyz
  'x, y, z'

loop_
  _atom_site_type_symbol
  _atom_site_label
  _atom_site_symmetry_multiplicity
  _atom_site_fract_x
  _atom_site_fract_y
  _atom_site_fract_z
  _atom_site_occupancy
  Er  Er1       1.0  0.00000  0.00000  0.00000  1.0000
  K   K1        1.0  0.00000  0.50000  0.50000  1.0000
  Te  Te1       1.0  0.47300  0.26300  0.21000  1.0000
  Te  Te2       1.0  0.52700  0.73700  0.79000  1.0000
