data_image0
_chemical_formula_structural       In2Li2Te4
_chemical_formula_sum              "In2 Li2 Te4"
_cell_length_a       6.51678
_cell_length_b       6.51678
_cell_length_c       7.85211
_cell_angle_alpha    114.517
_cell_angle_beta     114.517
_cell_angle_gamma    90

_space_group_name_H-M_alt    "P 1"
_space_group_IT_number       1

loop_
  _space_group_symop_operation_xyz
  'x, y, z'

loop_
  _atom_site_type_symbol
  _atom_site_label
  _atom_site_symmetry_multiplicity
  _atom_site_fract_x
  _atom_site_fract_y
  _atom_site_fract_z
  _atom_site_occupancy
  In  In1       1.0  0.50000  0.50000  0.00000  1.0000
  In  In2       1.0  0.75000  0.25000  0.50000  1.0000
  Li  Li1       1.0  0.00000  0.00000  0.00000  1.0000
  Li  Li2       1.0  0.25000  0.75000  0.50000  1.0000
  Te  Te1       1.0  0.36600  0.37500  0.25000  1.0000
  Te  Te2       1.0  0.88400  0.87500  0.25000  1.0000
  Te  Te3       1.0  0.62500  0.11600  0.75000  1.0000
  Te  Te4       1.0  0.12500  0.63400  0.75000  1.0000
