data_image0
_chemical_formula_structural       F6K2Th
_chemical_formula_sum              "F6 K2 Th1"
_cell_length_a       6.3895
_cell_length_b       6.3895
_cell_length_c       3.75106
_cell_angle_alpha    90
_cell_angle_beta     90
_cell_angle_gamma    120.006

_space_group_name_H-M_alt    "P 1"
_space_group_IT_number       1

loop_
  _space_group_symop_operation_xyz
  'x, y, z'

loop_
  _atom_site_type_symbol
  _atom_site_label
  _atom_site_symmetry_multiplicity
  _atom_site_fract_x
  _atom_site_fract_y
  _atom_site_fract_z
  _atom_site_occupancy
  F   F1        1.0  0.64100  0.00001  0.00000  1.0000
  F   F2        1.0  0.35900  0.35900  0.00000  1.0000
  F   F3        1.0  0.00001  0.64100  0.00000  1.0000
  F   F4        1.0  0.23500  0.00001  0.50000  1.0000
  F   F5        1.0  0.00000  0.23500  0.50000  1.0000
  F   F6        1.0  0.76500  0.76500  0.50000  1.0000
  K   K1        1.0  0.66700  0.33300  0.50000  1.0000
  K   K2        1.0  0.33300  0.66700  0.50000  1.0000
  Th  Th1       1.0  0.00002  0.00002  0.00000  1.0000
