data_image0
_chemical_formula_structural       In2K2Te4
_chemical_formula_sum              "In2 K2 Te4"
_cell_length_a       7.2402
_cell_length_b       7.2402
_cell_length_c       7.2402
_cell_angle_alpha    118.17
_cell_angle_beta     105.305
_cell_angle_gamma    105.305

_space_group_name_H-M_alt    "P 1"
_space_group_IT_number       1

loop_
  _space_group_symop_operation_xyz
  'x, y, z'

loop_
  _atom_site_type_symbol
  _atom_site_label
  _atom_site_symmetry_multiplicity
  _atom_site_fract_x
  _atom_site_fract_y
  _atom_site_fract_z
  _atom_site_occupancy
  In  In1       1.0  0.50000  0.75000  0.25000  1.0000
  In  In2       1.0  0.50000  0.25000  0.75000  1.0000
  K   K1        1.0  0.00000  0.25000  0.25000  1.0000
  K   K2        1.0  0.00000  0.75000  0.75000  1.0000
  Te  Te1       1.0  0.50000  0.32500  0.17500  1.0000
  Te  Te2       1.0  0.15000  0.82500  0.32500  1.0000
  Te  Te3       1.0  0.85000  0.17500  0.67500  1.0000
  Te  Te4       1.0  0.50000  0.67500  0.82500  1.0000
