data_image0
_chemical_formula_structural       Nd6O14Ta2
_chemical_formula_sum              "Nd6 O14 Ta2"
_cell_length_a       6.58824
_cell_length_b       6.58824
_cell_length_c       7.58298
_cell_angle_alpha    90
_cell_angle_beta     90
_cell_angle_gamma    112.461

_space_group_name_H-M_alt    "P 1"
_space_group_IT_number       1

loop_
  _space_group_symop_operation_xyz
  'x, y, z'

loop_
  _atom_site_type_symbol
  _atom_site_label
  _atom_site_symmetry_multiplicity
  _atom_site_fract_x
  _atom_site_fract_y
  _atom_site_fract_z
  _atom_site_occupancy
  Nd  Nd1       1.0  0.00000  0.00000  0.00000  1.0000
  Nd  Nd2       1.0  0.00000  0.00000  0.50000  1.0000
  Nd  Nd3       1.0  0.53100  0.08100  0.25000  1.0000
  Nd  Nd4       1.0  0.46900  0.91900  0.75000  1.0000
  Nd  Nd5       1.0  0.91900  0.46900  0.75000  1.0000
  Nd  Nd6       1.0  0.08100  0.53100  0.25000  1.0000
  O   O1        1.0  0.15800  0.89900  0.25000  1.0000
  O   O2        1.0  0.84200  0.10100  0.75000  1.0000
  O   O3        1.0  0.10100  0.84200  0.75000  1.0000
  O   O4        1.0  0.89900  0.15800  0.25000  1.0000
  O   O5        1.0  0.43900  0.18400  0.95900  1.0000
  O   O6        1.0  0.56100  0.81600  0.45900  1.0000
  O   O7        1.0  0.81600  0.56100  0.04090  1.0000
  O   O8        1.0  0.18400  0.43900  0.54100  1.0000
  O   O9        1.0  0.56100  0.81600  0.04090  1.0000
  O   O10       1.0  0.43900  0.18400  0.54100  1.0000
  O   O11       1.0  0.18400  0.43900  0.95900  1.0000
  O   O12       1.0  0.81600  0.56100  0.45900  1.0000
  O   O13       1.0  0.42100  0.42100  0.25000  1.0000
  O   O14       1.0  0.57900  0.57900  0.75000  1.0000
  Ta  Ta1       1.0  0.50000  0.50000  0.00000  1.0000
  Ta  Ta2       1.0  0.50000  0.50000  0.50000  1.0000
