data_image0
_chemical_formula_structural       F4S2Yb3
_chemical_formula_sum              "F4 S2 Yb3"
_cell_length_a       3.78488
_cell_length_b       3.78488
_cell_length_c       9.66954
_cell_angle_alpha    101.286
_cell_angle_beta     101.286
_cell_angle_gamma    90

_space_group_name_H-M_alt    "P 1"
_space_group_IT_number       1

loop_
  _space_group_symop_operation_xyz
  'x, y, z'

loop_
  _atom_site_type_symbol
  _atom_site_label
  _atom_site_symmetry_multiplicity
  _atom_site_fract_x
  _atom_site_fract_y
  _atom_site_fract_z
  _atom_site_occupancy
  F   F1        1.0  0.57000  0.07040  0.14100  1.0000
  F   F2        1.0  0.07040  0.57000  0.14100  1.0000
  F   F3        1.0  0.93000  0.43000  0.85900  1.0000
  F   F4        1.0  0.43000  0.93000  0.85900  1.0000
  S   S1        1.0  0.22200  0.22200  0.44400  1.0000
  S   S2        1.0  0.77800  0.77800  0.55600  1.0000
  Yb  Yb1       1.0  0.00000  0.00000  0.00000  1.0000
  Yb  Yb2       1.0  0.63800  0.63800  0.27500  1.0000
  Yb  Yb3       1.0  0.36200  0.36200  0.72500  1.0000
