data_image0
_chemical_formula_structural       O42P12Zn12
_chemical_formula_sum              "O42 P12 Zn12"
_cell_length_a       8.98285
_cell_length_b       10.574
_cell_length_c       10.5741
_cell_angle_alpha    45.9275
_cell_angle_beta     101.462
_cell_angle_gamma    101.461

_space_group_name_H-M_alt    "P 1"
_space_group_IT_number       1

loop_
  _space_group_symop_operation_xyz
  'x, y, z'

loop_
  _atom_site_type_symbol
  _atom_site_label
  _atom_site_symmetry_multiplicity
  _atom_site_fract_x
  _atom_site_fract_y
  _atom_site_fract_z
  _atom_site_occupancy
  O   O1        1.0  0.75000  0.53700  0.46300  1.0000
  O   O2        1.0  0.25000  0.46300  0.53700  1.0000
  O   O3        1.0  0.03980  0.57700  0.28600  1.0000
  O   O4        1.0  0.46000  0.71400  0.42300  1.0000
  O   O5        1.0  0.96000  0.42300  0.71400  1.0000
  O   O6        1.0  0.54000  0.28600  0.57700  1.0000
  O   O7        1.0  0.20700  0.24700  0.95100  1.0000
  O   O8        1.0  0.29300  0.04940  0.75300  1.0000
  O   O9        1.0  0.79300  0.75300  0.04950  1.0000
  O   O10       1.0  0.70700  0.95100  0.24700  1.0000
  O   O11       1.0  0.70600  0.24600  0.92900  1.0000
  O   O12       1.0  0.79400  0.07060  0.75400  1.0000
  O   O13       1.0  0.29400  0.75400  0.07060  1.0000
  O   O14       1.0  0.20600  0.92900  0.24600  1.0000
  O   O15       1.0  0.62500  0.38900  0.09000  1.0000
  O   O16       1.0  0.87500  0.91000  0.61100  1.0000
  O   O17       1.0  0.37500  0.61100  0.91000  1.0000
  O   O18       1.0  0.12500  0.09000  0.38900  1.0000
  O   O19       1.0  0.23000  0.37400  0.37300  1.0000
  O   O20       1.0  0.27000  0.62700  0.62600  1.0000
  O   O21       1.0  0.77000  0.62600  0.62700  1.0000
  O   O22       1.0  0.73000  0.37300  0.37400  1.0000
  O   O23       1.0  0.39700  0.04550  0.03230  1.0000
  O   O24       1.0  0.10300  0.96800  0.95400  1.0000
  O   O25       1.0  0.60300  0.95400  0.96800  1.0000
  O   O26       1.0  0.89700  0.03230  0.04550  1.0000
  O   O27       1.0  0.43400  0.28900  0.29700  1.0000
  O   O28       1.0  0.06640  0.70300  0.71100  1.0000
  O   O29       1.0  0.56600  0.71100  0.70300  1.0000
  O   O30       1.0  0.93400  0.29700  0.28900  1.0000
  O   O31       1.0  0.92400  0.19400  0.13700  1.0000
  O   O32       1.0  0.57600  0.86300  0.80600  1.0000
  O   O33       1.0  0.07580  0.80600  0.86300  1.0000
  O   O34       1.0  0.42400  0.13700  0.19400  1.0000
  O   O35       1.0  0.53300  0.58100  0.25800  1.0000
  O   O36       1.0  0.96700  0.74200  0.41900  1.0000
  O   O37       1.0  0.46700  0.41900  0.74200  1.0000
  O   O38       1.0  0.03280  0.25800  0.58100  1.0000
  O   O39       1.0  0.13700  0.40700  0.08800  1.0000
  O   O40       1.0  0.36300  0.91200  0.59300  1.0000
  O   O41       1.0  0.86300  0.59300  0.91200  1.0000
  O   O42       1.0  0.63700  0.08800  0.40700  1.0000
  P   P1        1.0  0.80100  0.09810  0.09190  1.0000
  P   P2        1.0  0.69900  0.90800  0.90200  1.0000
  P   P3        1.0  0.19900  0.90200  0.90800  1.0000
  P   P4        1.0  0.30100  0.09190  0.09820  1.0000
  P   P5        1.0  0.53600  0.23100  0.24900  1.0000
  P   P6        1.0  0.96400  0.75100  0.76900  1.0000
  P   P7        1.0  0.46400  0.76900  0.75100  1.0000
  P   P8        1.0  0.03590  0.24900  0.23100  1.0000
  P   P9        1.0  0.63100  0.43600  0.42000  1.0000
  P   P10       1.0  0.86900  0.58000  0.56400  1.0000
  P   P11       1.0  0.36900  0.56400  0.58000  1.0000
  P   P12       1.0  0.13100  0.42000  0.43600  1.0000
  Zn  Zn1       1.0  0.82100  0.52000  0.13800  1.0000
  Zn  Zn2       1.0  0.67900  0.86200  0.48000  1.0000
  Zn  Zn3       1.0  0.17900  0.48000  0.86200  1.0000
  Zn  Zn4       1.0  0.32100  0.13800  0.52000  1.0000
  Zn  Zn5       1.0  0.51000  0.19500  0.81000  1.0000
  Zn  Zn6       1.0  0.99000  0.19000  0.80500  1.0000
  Zn  Zn7       1.0  0.49000  0.80500  0.19000  1.0000
  Zn  Zn8       1.0  0.00992  0.81000  0.19500  1.0000
  Zn  Zn9       1.0  0.33600  0.52800  0.14200  1.0000
  Zn  Zn10      1.0  0.16400  0.85800  0.47200  1.0000
  Zn  Zn11      1.0  0.66400  0.47200  0.85800  1.0000
  Zn  Zn12      1.0  0.83600  0.14200  0.52800  1.0000
