data_image0
_chemical_formula_structural       H12Li4N6Rb2
_chemical_formula_sum              "H12 Li4 N6 Rb2"
_cell_length_a       6.66593
_cell_length_b       6.66593
_cell_length_c       5.3721
_cell_angle_alpha    90.0008
_cell_angle_beta     90.0008
_cell_angle_gamma    71.736

_space_group_name_H-M_alt    "P 1"
_space_group_IT_number       1

loop_
  _space_group_symop_operation_xyz
  'x, y, z'

loop_
  _atom_site_type_symbol
  _atom_site_label
  _atom_site_symmetry_multiplicity
  _atom_site_fract_x
  _atom_site_fract_y
  _atom_site_fract_z
  _atom_site_occupancy
  H   H1        1.0  0.74700  0.53500  0.25000  1.0000
  H   H2        1.0  0.25300  0.46500  0.75000  1.0000
  H   H3        1.0  0.46500  0.25300  0.75000  1.0000
  H   H4        1.0  0.53500  0.74700  0.25000  1.0000
  H   H5        1.0  0.24400  0.89700  0.25000  1.0000
  H   H6        1.0  0.75600  0.10200  0.75000  1.0000
  H   H7        1.0  0.10200  0.75600  0.75000  1.0000
  H   H8        1.0  0.89700  0.24400  0.25000  1.0000
  H   H9        1.0  0.33300  0.07530  0.25000  1.0000
  H   H10       1.0  0.66700  0.92500  0.75000  1.0000
  H   H11       1.0  0.92500  0.66700  0.75000  1.0000
  H   H12       1.0  0.07530  0.33300  0.25000  1.0000
  Li  Li1       1.0  0.34900  0.65100  0.50000  1.0000
  Li  Li2       1.0  0.65100  0.34900  0.00015  1.0000
  Li  Li3       1.0  0.65100  0.34900  0.50000  1.0000
  Li  Li4       1.0  0.34900  0.65100  0.00015  1.0000
  N   N1        1.0  0.78100  0.61900  0.75000  1.0000
  N   N2        1.0  0.61900  0.78100  0.75000  1.0000
  N   N3        1.0  0.38100  0.21900  0.25000  1.0000
  N   N4        1.0  0.21900  0.38100  0.25000  1.0000
  N   N5        1.0  0.41500  0.41500  0.75000  1.0000
  N   N6        1.0  0.58500  0.58500  0.25000  1.0000
  Rb  Rb1       1.0  0.86800  0.86800  0.25000  1.0000
  Rb  Rb2       1.0  0.13200  0.13200  0.75000  1.0000
