data_image0
_chemical_formula_structural       Ca8O16Ru4
_chemical_formula_sum              "Ca8 O16 Ru4"
_cell_length_a       5.32308
_cell_length_b       5.47511
_cell_length_c       12.0124
_cell_angle_alpha    90
_cell_angle_beta     90
_cell_angle_gamma    90

_space_group_name_H-M_alt    "P 1"
_space_group_IT_number       1

loop_
  _space_group_symop_operation_xyz
  'x, y, z'

loop_
  _atom_site_type_symbol
  _atom_site_label
  _atom_site_symmetry_multiplicity
  _atom_site_fract_x
  _atom_site_fract_y
  _atom_site_fract_z
  _atom_site_occupancy
  Ca  Ca1       1.0  0.00887  0.05370  0.34800  1.0000
  Ca  Ca2       1.0  0.49100  0.94600  0.84800  1.0000
  Ca  Ca3       1.0  0.50900  0.44600  0.65200  1.0000
  Ca  Ca4       1.0  0.99100  0.55400  0.15200  1.0000
  Ca  Ca5       1.0  0.99100  0.94600  0.65200  1.0000
  Ca  Ca6       1.0  0.50900  0.05370  0.15200  1.0000
  Ca  Ca7       1.0  0.49100  0.55400  0.34800  1.0000
  Ca  Ca8       1.0  0.00887  0.44600  0.84800  1.0000
  O   O1        1.0  0.93700  0.98000  0.16700  1.0000
  O   O2        1.0  0.56300  0.02000  0.66700  1.0000
  O   O3        1.0  0.43700  0.52000  0.83300  1.0000
  O   O4        1.0  0.06320  0.48000  0.33300  1.0000
  O   O5        1.0  0.06320  0.02000  0.83300  1.0000
  O   O6        1.0  0.43700  0.98000  0.33300  1.0000
  O   O7        1.0  0.56300  0.48000  0.16700  1.0000
  O   O8        1.0  0.93700  0.52000  0.66700  1.0000
  O   O9        1.0  0.19200  0.30400  0.02550  1.0000
  O   O10       1.0  0.30800  0.69600  0.52600  1.0000
  O   O11       1.0  0.69200  0.19600  0.97400  1.0000
  O   O12       1.0  0.80800  0.80400  0.47400  1.0000
  O   O13       1.0  0.80800  0.69600  0.97400  1.0000
  O   O14       1.0  0.69200  0.30400  0.47400  1.0000
  O   O15       1.0  0.30800  0.80400  0.02550  1.0000
  O   O16       1.0  0.19200  0.19600  0.52600  1.0000
  Ru  Ru1       1.0  0.00000  0.00000  0.00000  1.0000
  Ru  Ru2       1.0  0.50000  0.00000  0.50000  1.0000
  Ru  Ru3       1.0  0.50000  0.50000  0.00000  1.0000
  Ru  Ru4       1.0  0.00000  0.50000  0.50000  1.0000
