data_image0
_chemical_formula_structural       Al6Na8O24Si6
_chemical_formula_sum              "Al6 Na8 O24 Si6"
_cell_length_a       8.54505
_cell_length_b       8.54505
_cell_length_c       8.54505
_cell_angle_alpha    90
_cell_angle_beta     90
_cell_angle_gamma    90

_space_group_name_H-M_alt    "P 1"
_space_group_IT_number       1

loop_
  _space_group_symop_operation_xyz
  'x, y, z'

loop_
  _atom_site_type_symbol
  _atom_site_label
  _atom_site_symmetry_multiplicity
  _atom_site_fract_x
  _atom_site_fract_y
  _atom_site_fract_z
  _atom_site_occupancy
  Al  Al1       1.0  0.25000  0.00000  0.50000  1.0000
  Al  Al2       1.0  0.75000  0.00000  0.50000  1.0000
  Al  Al3       1.0  0.50000  0.25000  0.00000  1.0000
  Al  Al4       1.0  0.00000  0.50000  0.25000  1.0000
  Al  Al5       1.0  0.50000  0.75000  0.00000  1.0000
  Al  Al6       1.0  0.00000  0.50000  0.75000  1.0000
  Na  Na1       1.0  0.15000  0.15000  0.15000  1.0000
  Na  Na2       1.0  0.85000  0.85000  0.15000  1.0000
  Na  Na3       1.0  0.15000  0.85000  0.85000  1.0000
  Na  Na4       1.0  0.85000  0.15000  0.85000  1.0000
  Na  Na5       1.0  0.65000  0.65000  0.65000  1.0000
  Na  Na6       1.0  0.35000  0.35000  0.65000  1.0000
  Na  Na7       1.0  0.35000  0.65000  0.35000  1.0000
  Na  Na8       1.0  0.65000  0.35000  0.35000  1.0000
  O   O1        1.0  0.14400  0.41400  0.13400  1.0000
  O   O2        1.0  0.85600  0.58600  0.13400  1.0000
  O   O3        1.0  0.14400  0.58600  0.86600  1.0000
  O   O4        1.0  0.85600  0.41400  0.86600  1.0000
  O   O5        1.0  0.13400  0.14400  0.41400  1.0000
  O   O6        1.0  0.41400  0.13400  0.14400  1.0000
  O   O7        1.0  0.86600  0.85600  0.41400  1.0000
  O   O8        1.0  0.58600  0.13400  0.85600  1.0000
  O   O9        1.0  0.13400  0.85600  0.58600  1.0000
  O   O10       1.0  0.58600  0.86600  0.14400  1.0000
  O   O11       1.0  0.86600  0.14400  0.58600  1.0000
  O   O12       1.0  0.41400  0.86600  0.85600  1.0000
  O   O13       1.0  0.91400  0.64400  0.63400  1.0000
  O   O14       1.0  0.08620  0.35600  0.63400  1.0000
  O   O15       1.0  0.08620  0.64400  0.36600  1.0000
  O   O16       1.0  0.91400  0.35600  0.36600  1.0000
  O   O17       1.0  0.64400  0.63400  0.91400  1.0000
  O   O18       1.0  0.63400  0.91400  0.64400  1.0000
  O   O19       1.0  0.35600  0.36600  0.91400  1.0000
  O   O20       1.0  0.63400  0.08620  0.35600  1.0000
  O   O21       1.0  0.35600  0.63400  0.08620  1.0000
  O   O22       1.0  0.36600  0.08620  0.64400  1.0000
  O   O23       1.0  0.64400  0.36600  0.08620  1.0000
  O   O24       1.0  0.36600  0.91400  0.35600  1.0000
  Si  Si1       1.0  0.25000  0.50000  0.00000  1.0000
  Si  Si2       1.0  0.75000  0.50000  0.00000  1.0000
  Si  Si3       1.0  0.00000  0.25000  0.50000  1.0000
  Si  Si4       1.0  0.50000  0.00000  0.25000  1.0000
  Si  Si5       1.0  0.00000  0.75000  0.50000  1.0000
  Si  Si6       1.0  0.50000  0.00000  0.75000  1.0000
