data_image0
_chemical_formula_structural       Ba4O18P4V2
_chemical_formula_sum              "Ba4 O18 P4 V2"
_cell_length_a       10.2449
_cell_length_b       8.98483
_cell_length_c       10.247
_cell_angle_alpha    123.756
_cell_angle_beta     149.894
_cell_angle_gamma    66.3258

_space_group_name_H-M_alt    "P 1"
_space_group_IT_number       1

loop_
  _space_group_symop_operation_xyz
  'x, y, z'

loop_
  _atom_site_type_symbol
  _atom_site_label
  _atom_site_symmetry_multiplicity
  _atom_site_fract_x
  _atom_site_fract_y
  _atom_site_fract_z
  _atom_site_occupancy
  Ba  Ba1       1.0  0.13400  0.49400  0.81100  1.0000
  Ba  Ba2       1.0  0.81600  0.00569  0.63900  1.0000
  Ba  Ba3       1.0  0.86600  0.50600  0.18900  1.0000
  Ba  Ba4       1.0  0.18400  0.99400  0.36100  1.0000
  O   O1        1.0  0.87300  0.75000  0.12300  1.0000
  O   O2        1.0  0.12700  0.25000  0.87700  1.0000
  O   O3        1.0  0.12600  0.22000  0.18000  1.0000
  O   O4        1.0  0.46100  0.27900  0.90700  1.0000
  O   O5        1.0  0.87400  0.78000  0.82000  1.0000
  O   O6        1.0  0.53900  0.72100  0.09290  1.0000
  O   O7        1.0  0.58300  0.33800  0.52300  1.0000
  O   O8        1.0  0.68600  0.16200  0.24600  1.0000
  O   O9        1.0  0.41700  0.66200  0.47700  1.0000
  O   O10       1.0  0.31400  0.83800  0.75400  1.0000
  O   O11       1.0  0.04460  0.71500  0.65200  1.0000
  O   O12       1.0  0.43800  0.78500  0.33000  1.0000
  O   O13       1.0  0.95500  0.28500  0.34800  1.0000
  O   O14       1.0  0.56200  0.21500  0.67000  1.0000
  O   O15       1.0  0.41200  0.50900  0.64200  1.0000
  O   O16       1.0  0.63400  0.99100  0.90400  1.0000
  O   O17       1.0  0.58800  0.49100  0.35800  1.0000
  O   O18       1.0  0.36600  0.00903  0.09590  1.0000
  P   P1        1.0  0.32200  0.81400  0.90100  1.0000
  P   P2        1.0  0.58800  0.68600  0.50900  1.0000
  P   P3        1.0  0.67800  0.18600  0.09940  1.0000
  P   P4        1.0  0.41200  0.31400  0.49100  1.0000
  V   V1        1.0  0.55900  0.75000  0.80900  1.0000
  V   V2        1.0  0.44100  0.25000  0.19100  1.0000
