data_image0
_chemical_formula_structural       Br6K2Pt
_chemical_formula_sum              "Br6 K2 Pt1"
_cell_length_a       7.44044
_cell_length_b       7.44044
_cell_length_c       7.44044
_cell_angle_alpha    120
_cell_angle_beta     90
_cell_angle_gamma    120

_space_group_name_H-M_alt    "P 1"
_space_group_IT_number       1

loop_
  _space_group_symop_operation_xyz
  'x, y, z'

loop_
  _atom_site_type_symbol
  _atom_site_label
  _atom_site_symmetry_multiplicity
  _atom_site_fract_x
  _atom_site_fract_y
  _atom_site_fract_z
  _atom_site_occupancy
  Br  Br1       1.0  0.76200  0.00000  0.23800  1.0000
  Br  Br2       1.0  0.23800  0.47600  0.23800  1.0000
  Br  Br3       1.0  0.23800  0.00000  0.23800  1.0000
  Br  Br4       1.0  0.76200  0.52400  0.76200  1.0000
  Br  Br5       1.0  0.23800  1.00000  0.76200  1.0000
  Br  Br6       1.0  0.76200  1.00000  0.76200  1.0000
  K   K1        1.0  0.75000  0.50000  0.25000  1.0000
  K   K2        1.0  0.25000  0.50000  0.75000  1.0000
  Pt  Pt1       1.0  0.00000  0.00000  0.00000  1.0000
