data_image0
_chemical_formula_structural       Cl6PtS2
_chemical_formula_sum              "Cl6 Pt1 S2"
_cell_length_a       4.44182
_cell_length_b       6.8208
_cell_length_c       8.19452
_cell_angle_alpha    104.076
_cell_angle_beta     97.8711
_cell_angle_gamma    93.9964

_space_group_name_H-M_alt    "P 1"
_space_group_IT_number       1

loop_
  _space_group_symop_operation_xyz
  'x, y, z'

loop_
  _atom_site_type_symbol
  _atom_site_label
  _atom_site_symmetry_multiplicity
  _atom_site_fract_x
  _atom_site_fract_y
  _atom_site_fract_z
  _atom_site_occupancy
  Cl  Cl1       1.0  0.24700  0.31000  0.05470  1.0000
  Cl  Cl2       1.0  0.40600  0.00432  0.28000  1.0000
  Cl  Cl3       1.0  0.79300  0.64200  0.33600  1.0000
  Cl  Cl4       1.0  0.20700  0.35800  0.66400  1.0000
  Cl  Cl5       1.0  0.59400  0.99600  0.72000  1.0000
  Cl  Cl6       1.0  0.75300  0.69000  0.94500  1.0000
  Pt  Pt1       1.0  0.50000  0.50000  0.50000  1.0000
  S   S1        1.0  0.19400  0.26400  0.28500  1.0000
  S   S2        1.0  0.80600  0.73600  0.71500  1.0000
