data_image0
_chemical_formula_structural       Al3Fe3U3
_chemical_formula_sum              "Al3 Fe3 U3"
_cell_length_a       6.5141
_cell_length_b       6.5141
_cell_length_c       4.01583
_cell_angle_alpha    90
_cell_angle_beta     90
_cell_angle_gamma    120.007

_space_group_name_H-M_alt    "P 1"
_space_group_IT_number       1

loop_
  _space_group_symop_operation_xyz
  'x, y, z'

loop_
  _atom_site_type_symbol
  _atom_site_label
  _atom_site_symmetry_multiplicity
  _atom_site_fract_x
  _atom_site_fract_y
  _atom_site_fract_z
  _atom_site_occupancy
  Al  Al1       1.0  0.23400  0.00001  0.00000  1.0000
  Al  Al2       1.0  0.00001  0.23400  0.00000  1.0000
  Al  Al3       1.0  0.76600  0.76600  0.00000  1.0000
  Fe  Fe1       1.0  0.66700  0.33300  0.00000  1.0000
  Fe  Fe2       1.0  0.33300  0.66700  0.00000  1.0000
  Fe  Fe3       1.0  0.00002  0.00002  0.50000  1.0000
  U   U1        1.0  0.57600  0.00000  0.50000  1.0000
  U   U2        1.0  0.42400  0.42400  0.50000  1.0000
  U   U3        1.0  0.00000  0.57600  0.50000  1.0000
