data_image0
_chemical_formula_structural       KSe6Th2
_chemical_formula_sum              "K1 Se6 Th2"
_cell_length_a       4.24328
_cell_length_b       5.61115
_cell_length_c       11.6577
_cell_angle_alpha    103.926
_cell_angle_beta     100.486
_cell_angle_gamma    90

_space_group_name_H-M_alt    "P 1"
_space_group_IT_number       1

loop_
  _space_group_symop_operation_xyz
  'x, y, z'

loop_
  _atom_site_type_symbol
  _atom_site_label
  _atom_site_symmetry_multiplicity
  _atom_site_fract_x
  _atom_site_fract_y
  _atom_site_fract_z
  _atom_site_occupancy
  K   K1        1.0  0.00000  0.00000  0.00000  1.0000
  Se  Se1       1.0  0.60300  0.35900  0.20600  1.0000
  Se  Se2       1.0  0.60300  0.84700  0.20600  1.0000
  Se  Se3       1.0  0.22800  0.22800  0.45600  1.0000
  Se  Se4       1.0  0.77200  0.77200  0.54400  1.0000
  Se  Se5       1.0  0.39700  0.15300  0.79400  1.0000
  Se  Se6       1.0  0.39700  0.64100  0.79400  1.0000
  Th  Th1       1.0  0.17800  0.67800  0.35500  1.0000
  Th  Th2       1.0  0.82200  0.32200  0.64500  1.0000
