data_image0
_chemical_formula_structural       Cr3P3Pd3
_chemical_formula_sum              "Cr3 P3 Pd3"
_cell_length_a       6.41968
_cell_length_b       6.41976
_cell_length_c       3.59417
_cell_angle_alpha    90
_cell_angle_beta     90
_cell_angle_gamma    120.012

_space_group_name_H-M_alt    "P 1"
_space_group_IT_number       1

loop_
  _space_group_symop_operation_xyz
  'x, y, z'

loop_
  _atom_site_type_symbol
  _atom_site_label
  _atom_site_symmetry_multiplicity
  _atom_site_fract_x
  _atom_site_fract_y
  _atom_site_fract_z
  _atom_site_occupancy
  Cr  Cr1       1.0  0.39300  0.39300  0.50000  1.0000
  Cr  Cr2       1.0  0.00000  0.60700  0.50000  1.0000
  Cr  Cr3       1.0  0.60700  0.00000  0.50000  1.0000
  P   P1        1.0  0.66700  0.33300  0.00000  1.0000
  P   P2        1.0  0.33300  0.66700  0.00000  1.0000
  P   P3        1.0  0.00004  0.00005  0.50000  1.0000
  Pd  Pd1       1.0  0.26900  0.00002  0.00000  1.0000
  Pd  Pd2       1.0  0.00002  0.26900  0.00000  1.0000
  Pd  Pd3       1.0  0.73100  0.73100  0.00000  1.0000
