data_image0
_chemical_formula_structural       Na2O6Sb2
_chemical_formula_sum              "Na2 O6 Sb2"
_cell_length_a       5.32014
_cell_length_b       5.32014
_cell_length_c       6.0688
_cell_angle_alpha    115.997
_cell_angle_beta     64.0033
_cell_angle_gamma    120

_space_group_name_H-M_alt    "P 1"
_space_group_IT_number       1

loop_
  _space_group_symop_operation_xyz
  'x, y, z'

loop_
  _atom_site_type_symbol
  _atom_site_label
  _atom_site_symmetry_multiplicity
  _atom_site_fract_x
  _atom_site_fract_y
  _atom_site_fract_z
  _atom_site_occupancy
  Na  Na1       1.0  0.64000  0.36000  0.08140  1.0000
  Na  Na2       1.0  0.36000  0.64000  0.91900  1.0000
  O   O1        1.0  0.95900  0.80300  0.28300  1.0000
  O   O2        1.0  0.56200  0.04130  0.28300  1.0000
  O   O3        1.0  0.19700  0.43800  0.28300  1.0000
  O   O4        1.0  0.80300  0.56200  0.71700  1.0000
  O   O5        1.0  0.43800  0.95900  0.71700  1.0000
  O   O6        1.0  0.04130  0.19700  0.71700  1.0000
  Sb  Sb1       1.0  0.84000  0.16000  0.48100  1.0000
  Sb  Sb2       1.0  0.16000  0.84000  0.51900  1.0000
