data_image0
_chemical_formula_structural       Al8Gd12
_chemical_formula_sum              "Al8 Gd12"
_cell_length_a       8.32731
_cell_length_b       8.32731
_cell_length_c       7.63074
_cell_angle_alpha    90
_cell_angle_beta     90
_cell_angle_gamma    90

_space_group_name_H-M_alt    "P 1"
_space_group_IT_number       1

loop_
  _space_group_symop_operation_xyz
  'x, y, z'

loop_
  _atom_site_type_symbol
  _atom_site_label
  _atom_site_symmetry_multiplicity
  _atom_site_fract_x
  _atom_site_fract_y
  _atom_site_fract_z
  _atom_site_occupancy
  Al  Al1       1.0  0.38100  0.38100  0.44900  1.0000
  Al  Al2       1.0  0.61900  0.61900  0.44900  1.0000
  Al  Al3       1.0  0.11900  0.88100  0.94900  1.0000
  Al  Al4       1.0  0.88100  0.11900  0.94900  1.0000
  Al  Al5       1.0  0.38100  0.38100  0.06360  1.0000
  Al  Al6       1.0  0.61900  0.61900  0.06360  1.0000
  Al  Al7       1.0  0.11900  0.88100  0.56400  1.0000
  Al  Al8       1.0  0.88100  0.11900  0.56400  1.0000
  Gd  Gd1       1.0  0.00000  0.50000  0.50600  1.0000
  Gd  Gd2       1.0  0.00000  0.50000  0.00601  1.0000
  Gd  Gd3       1.0  0.50000  0.00000  0.00601  1.0000
  Gd  Gd4       1.0  0.50000  0.00000  0.50600  1.0000
  Gd  Gd5       1.0  0.15000  0.15000  0.25600  1.0000
  Gd  Gd6       1.0  0.85000  0.85000  0.25600  1.0000
  Gd  Gd7       1.0  0.35000  0.65000  0.75600  1.0000
  Gd  Gd8       1.0  0.65000  0.35000  0.75600  1.0000
  Gd  Gd9       1.0  0.20200  0.20200  0.75600  1.0000
  Gd  Gd10      1.0  0.79800  0.79800  0.75600  1.0000
  Gd  Gd11      1.0  0.29800  0.70200  0.25600  1.0000
  Gd  Gd12      1.0  0.70200  0.29800  0.25600  1.0000
