data_image0
_chemical_formula_structural       CuGd2Ge6
_chemical_formula_sum              "Cu1 Gd2 Ge6"
_cell_length_a       4.10091
_cell_length_b       4.0669
_cell_length_c       10.9248
_cell_angle_alpha    79.2729
_cell_angle_beta     90
_cell_angle_gamma    90

_space_group_name_H-M_alt    "P 1"
_space_group_IT_number       1

loop_
  _space_group_symop_operation_xyz
  'x, y, z'

loop_
  _atom_site_type_symbol
  _atom_site_label
  _atom_site_symmetry_multiplicity
  _atom_site_fract_x
  _atom_site_fract_y
  _atom_site_fract_z
  _atom_site_occupancy
  Cu  Cu1       1.0  0.50000  0.77500  0.45000  1.0000
  Gd  Gd1       1.0  0.00000  0.99600  0.00856  1.0000
  Gd  Gd2       1.0  0.00000  0.33100  0.33800  1.0000
  Ge  Ge1       1.0  0.50000  0.45500  0.08900  1.0000
  Ge  Ge2       1.0  0.50000  0.88400  0.23200  1.0000
  Ge  Ge3       1.0  0.00000  0.71500  0.57000  1.0000
  Ge  Ge4       1.0  0.50000  0.21500  0.57000  1.0000
  Ge  Ge5       1.0  0.00000  0.59900  0.80200  1.0000
  Ge  Ge6       1.0  0.50000  0.09860  0.80300  1.0000
