data_image0
_chemical_formula_structural       Bi2FeHo6
_chemical_formula_sum              "Bi2 Fe1 Ho6"
_cell_length_a       8.30406
_cell_length_b       8.30406
_cell_length_c       4.13154
_cell_angle_alpha    90
_cell_angle_beta     90
_cell_angle_gamma    119.999

_space_group_name_H-M_alt    "P 1"
_space_group_IT_number       1

loop_
  _space_group_symop_operation_xyz
  'x, y, z'

loop_
  _atom_site_type_symbol
  _atom_site_label
  _atom_site_symmetry_multiplicity
  _atom_site_fract_x
  _atom_site_fract_y
  _atom_site_fract_z
  _atom_site_occupancy
  Bi  Bi1       1.0  0.66700  0.33300  0.00000  1.0000
  Bi  Bi2       1.0  0.33300  0.66700  0.00000  1.0000
  Fe  Fe1       1.0  0.00001  0.00001  0.50000  1.0000
  Ho  Ho1       1.0  0.22900  0.00001  0.00000  1.0000
  Ho  Ho2       1.0  0.00001  0.22900  0.00000  1.0000
  Ho  Ho3       1.0  0.77200  0.77200  0.00000  1.0000
  Ho  Ho4       1.0  0.60600  0.00002  0.50000  1.0000
  Ho  Ho5       1.0  0.39400  0.39400  0.50000  1.0000
  Ho  Ho6       1.0  0.00002  0.60600  0.50000  1.0000
