data_image0
_chemical_formula_structural       Ge2Mn2O6
_chemical_formula_sum              "Ge2 Mn2 O6"
_cell_length_a       5.05002
_cell_length_b       5.05002
_cell_length_c       5.5825
_cell_angle_alpha    116.892
_cell_angle_beta     116.892
_cell_angle_gamma    60

_space_group_name_H-M_alt    "P 1"
_space_group_IT_number       1

loop_
  _space_group_symop_operation_xyz
  'x, y, z'

loop_
  _atom_site_type_symbol
  _atom_site_label
  _atom_site_symmetry_multiplicity
  _atom_site_fract_x
  _atom_site_fract_y
  _atom_site_fract_z
  _atom_site_occupancy
  Ge  Ge1       1.0  0.15700  0.15700  0.47000  1.0000
  Ge  Ge2       1.0  0.84300  0.84300  0.53000  1.0000
  Mn  Mn1       1.0  0.36400  0.36400  0.09140  1.0000
  Mn  Mn2       1.0  0.63600  0.63600  0.90900  1.0000
  O   O1        1.0  0.43800  0.04220  0.27500  1.0000
  O   O2        1.0  0.79400  0.43800  0.27500  1.0000
  O   O3        1.0  0.04220  0.79400  0.27500  1.0000
  O   O4        1.0  0.95800  0.20600  0.72500  1.0000
  O   O5        1.0  0.20600  0.56200  0.72500  1.0000
  O   O6        1.0  0.56200  0.95800  0.72500  1.0000
