data_image0
_chemical_formula_structural       BaEr2NiO5
_chemical_formula_sum              "Ba1 Er2 Ni1 O5"
_cell_length_a       3.73707
_cell_length_b       5.71404
_cell_length_c       6.57277
_cell_angle_alpha    115.765
_cell_angle_beta     106.516
_cell_angle_gamma    90

_space_group_name_H-M_alt    "P 1"
_space_group_IT_number       1

loop_
  _space_group_symop_operation_xyz
  'x, y, z'

loop_
  _atom_site_type_symbol
  _atom_site_label
  _atom_site_symmetry_multiplicity
  _atom_site_fract_x
  _atom_site_fract_y
  _atom_site_fract_z
  _atom_site_occupancy
  Ba  Ba1       1.0  0.00000  0.00000  0.00000  1.0000
  Er  Er1       1.0  0.20300  0.70300  0.40700  1.0000
  Er  Er2       1.0  0.79700  0.29700  0.59300  1.0000
  Ni  Ni1       1.0  0.50000  0.50000  0.00000  1.0000
  O   O1        1.0  0.00000  0.50000  0.00000  1.0000
  O   O2        1.0  0.65000  0.40900  0.30000  1.0000
  O   O3        1.0  0.65000  0.89100  0.30000  1.0000
  O   O4        1.0  0.35000  0.10900  0.70000  1.0000
  O   O5        1.0  0.35000  0.59100  0.70000  1.0000
