data_image0
_chemical_formula_structural       Ca16In6
_chemical_formula_sum              "Ca16 In6"
_cell_length_a       9.47894
_cell_length_b       9.54919
_cell_length_c       9.62117
_cell_angle_alpha    69.7529
_cell_angle_beta     78.9582
_cell_angle_gamma    60.2938

_space_group_name_H-M_alt    "P 1"
_space_group_IT_number       1

loop_
  _space_group_symop_operation_xyz
  'x, y, z'

loop_
  _atom_site_type_symbol
  _atom_site_label
  _atom_site_symmetry_multiplicity
  _atom_site_fract_x
  _atom_site_fract_y
  _atom_site_fract_z
  _atom_site_occupancy
  Ca  Ca1       1.0  0.62000  0.54000  0.38800  1.0000
  Ca  Ca2       1.0  0.31600  0.43300  0.60700  1.0000
  Ca  Ca3       1.0  0.99600  0.36600  0.85000  1.0000
  Ca  Ca4       1.0  0.96300  0.16000  0.61400  1.0000
  Ca  Ca5       1.0  0.01220  0.89200  0.39100  1.0000
  Ca  Ca6       1.0  0.71100  0.78300  0.61200  1.0000
  Ca  Ca7       1.0  0.36700  0.16200  0.38600  1.0000
  Ca  Ca8       1.0  0.64700  0.06020  0.85500  1.0000
  Ca  Ca9       1.0  0.33500  0.95700  0.15000  1.0000
  Ca  Ca10      1.0  0.78000  0.81700  0.20400  1.0000
  Ca  Ca11      1.0  0.33400  0.96100  0.79200  1.0000
  Ca  Ca12      1.0  0.26700  0.60100  0.17000  1.0000
  Ca  Ca13      1.0  0.06480  0.72200  0.83000  1.0000
  Ca  Ca14      1.0  0.55200  0.50500  0.79500  1.0000
  Ca  Ca15      1.0  0.99700  0.36200  0.20700  1.0000
  Ca  Ca16      1.0  0.68300  0.26300  0.14600  1.0000
  In  In1       1.0  0.33200  0.32100  0.00203  1.0000
  In  In2       1.0  0.66500  0.65900  0.00331  1.0000
  In  In3       1.0  0.00000  0.49900  0.47500  1.0000
  In  In4       1.0  0.00000  0.00050  0.00000  1.0000
  In  In5       1.0  0.32800  0.82100  0.52600  1.0000
  In  In6       1.0  0.66400  0.16000  0.50300  1.0000
