data_image0
_chemical_formula_structural       Ca8O12Pt2
_chemical_formula_sum              "Ca8 O12 Pt2"
_cell_length_a       6.4805
_cell_length_b       6.48052
_cell_length_c       6.48031
_cell_angle_alpha    90.3314
_cell_angle_beta     90.3318
_cell_angle_gamma    90.3302

_space_group_name_H-M_alt    "P 1"
_space_group_IT_number       1

loop_
  _space_group_symop_operation_xyz
  'x, y, z'

loop_
  _atom_site_type_symbol
  _atom_site_label
  _atom_site_symmetry_multiplicity
  _atom_site_fract_x
  _atom_site_fract_y
  _atom_site_fract_z
  _atom_site_occupancy
  Ca  Ca1       1.0  0.61700  0.88300  0.25000  1.0000
  Ca  Ca2       1.0  0.25000  0.61700  0.88300  1.0000
  Ca  Ca3       1.0  0.88300  0.25000  0.61700  1.0000
  Ca  Ca4       1.0  0.38300  0.11700  0.75000  1.0000
  Ca  Ca5       1.0  0.75000  0.38300  0.11700  1.0000
  Ca  Ca6       1.0  0.11700  0.75000  0.38300  1.0000
  Ca  Ca7       1.0  0.75000  0.75000  0.75000  1.0000
  Ca  Ca8       1.0  0.25000  0.25000  0.25000  1.0000
  O   O1        1.0  0.69900  0.05530  0.92700  1.0000
  O   O2        1.0  0.92700  0.69900  0.05540  1.0000
  O   O3        1.0  0.05530  0.92700  0.69900  1.0000
  O   O4        1.0  0.44500  0.80100  0.57300  1.0000
  O   O5        1.0  0.80100  0.57300  0.44500  1.0000
  O   O6        1.0  0.57300  0.44500  0.80100  1.0000
  O   O7        1.0  0.30100  0.94500  0.07260  1.0000
  O   O8        1.0  0.07260  0.30100  0.94500  1.0000
  O   O9        1.0  0.94500  0.07260  0.30100  1.0000
  O   O10       1.0  0.55500  0.19900  0.42700  1.0000
  O   O11       1.0  0.19900  0.42700  0.55500  1.0000
  O   O12       1.0  0.42700  0.55500  0.19900  1.0000
  Pt  Pt1       1.0  0.00001  0.00004  0.00000  1.0000
  Pt  Pt2       1.0  0.50000  0.50000  0.50000  1.0000
