data_image0
_chemical_formula_structural       I8O2Ta8Te18
_chemical_formula_sum              "I8 O2 Ta8 Te18"
_cell_length_a       11.7458
_cell_length_b       11.7458
_cell_length_c       20.7168
_cell_angle_alpha    58.7954
_cell_angle_beta     121.205
_cell_angle_gamma    149.147

_space_group_name_H-M_alt    "P 1"
_space_group_IT_number       1

loop_
  _space_group_symop_operation_xyz
  'x, y, z'

loop_
  _atom_site_type_symbol
  _atom_site_label
  _atom_site_symmetry_multiplicity
  _atom_site_fract_x
  _atom_site_fract_y
  _atom_site_fract_z
  _atom_site_occupancy
  I   I1        1.0  0.94800  0.66900  0.99400  1.0000
  I   I2        1.0  0.66900  0.94800  0.50600  1.0000
  I   I3        1.0  0.05190  0.33100  0.00609  1.0000
  I   I4        1.0  0.33100  0.05190  0.49400  1.0000
  I   I5        1.0  0.72500  0.38400  0.72400  1.0000
  I   I6        1.0  0.38400  0.72500  0.77600  1.0000
  I   I7        1.0  0.27500  0.61600  0.27600  1.0000
  I   I8        1.0  0.61600  0.27500  0.22400  1.0000
  O   O1        1.0  0.11600  0.11600  0.75000  1.0000
  O   O2        1.0  0.88400  0.88400  0.25000  1.0000
  Ta  Ta1       1.0  0.37600  0.22600  0.73900  1.0000
  Ta  Ta2       1.0  0.22600  0.37600  0.76100  1.0000
  Ta  Ta3       1.0  0.62400  0.77400  0.26100  1.0000
  Ta  Ta4       1.0  0.77400  0.62400  0.23900  1.0000
  Ta  Ta5       1.0  0.12800  0.99900  0.86200  1.0000
  Ta  Ta6       1.0  0.99900  0.12800  0.63800  1.0000
  Ta  Ta7       1.0  0.87200  0.00116  0.13800  1.0000
  Ta  Ta8       1.0  0.00116  0.87200  0.36200  1.0000
  Te  Te1       1.0  0.53700  0.19700  0.90300  1.0000
  Te  Te2       1.0  0.19700  0.53700  0.59700  1.0000
  Te  Te3       1.0  0.46300  0.80300  0.09710  1.0000
  Te  Te4       1.0  0.80300  0.46300  0.40300  1.0000
  Te  Te5       1.0  0.17900  0.82100  0.83600  1.0000
  Te  Te6       1.0  0.82100  0.17900  0.66400  1.0000
  Te  Te7       1.0  0.82100  0.17900  0.16400  1.0000
  Te  Te8       1.0  0.17900  0.82100  0.33600  1.0000
  Te  Te9       1.0  0.34800  0.38600  0.57500  1.0000
  Te  Te10      1.0  0.38600  0.34800  0.92500  1.0000
  Te  Te11      1.0  0.65200  0.61400  0.42500  1.0000
  Te  Te12      1.0  0.61400  0.65200  0.07530  1.0000
  Te  Te13      1.0  0.05970  0.94100  0.62900  1.0000
  Te  Te14      1.0  0.94100  0.05970  0.87100  1.0000
  Te  Te15      1.0  0.94000  0.05930  0.37100  1.0000
  Te  Te16      1.0  0.05930  0.94000  0.12900  1.0000
  Te  Te17      1.0  0.66400  0.66400  0.75000  1.0000
  Te  Te18      1.0  0.33600  0.33600  0.25000  1.0000
