data_image0
_chemical_formula_structural       Ni20P6Sn10
_chemical_formula_sum              "Ni20 P6 Sn10"
_cell_length_a       6.38244
_cell_length_b       8.28831
_cell_length_c       10.2269
_cell_angle_alpha    73.2185
_cell_angle_beta     84.3526
_cell_angle_gamma    82.7995

_space_group_name_H-M_alt    "P 1"
_space_group_IT_number       1

loop_
  _space_group_symop_operation_xyz
  'x, y, z'

loop_
  _atom_site_type_symbol
  _atom_site_label
  _atom_site_symmetry_multiplicity
  _atom_site_fract_x
  _atom_site_fract_y
  _atom_site_fract_z
  _atom_site_occupancy
  Ni  Ni1       1.0  0.94900  0.56600  0.87300  1.0000
  Ni  Ni2       1.0  0.05090  0.43400  0.12700  1.0000
  Ni  Ni3       1.0  0.94400  0.29600  0.79600  1.0000
  Ni  Ni4       1.0  0.05640  0.70400  0.20400  1.0000
  Ni  Ni5       1.0  0.60100  0.39400  0.93200  1.0000
  Ni  Ni6       1.0  0.39900  0.60600  0.06810  1.0000
  Ni  Ni7       1.0  0.66300  0.60100  0.69400  1.0000
  Ni  Ni8       1.0  0.33700  0.39900  0.30600  1.0000
  Ni  Ni9       1.0  0.86800  0.13200  0.62500  1.0000
  Ni  Ni10      1.0  0.13200  0.86800  0.37500  1.0000
  Ni  Ni11      1.0  0.00000  0.00000  0.00000  1.0000
  Ni  Ni12      1.0  0.41600  0.08310  0.29400  1.0000
  Ni  Ni13      1.0  0.58400  0.91700  0.70600  1.0000
  Ni  Ni14      1.0  0.29500  0.72400  0.79900  1.0000
  Ni  Ni15      1.0  0.70500  0.27600  0.20100  1.0000
  Ni  Ni16      1.0  0.14800  0.34700  0.54900  1.0000
  Ni  Ni17      1.0  0.85200  0.65300  0.45100  1.0000
  Ni  Ni18      1.0  0.50000  0.50000  0.50000  1.0000
  Ni  Ni19      1.0  0.26800  0.21100  0.96300  1.0000
  Ni  Ni20      1.0  0.73200  0.78900  0.03680  1.0000
  P   P1        1.0  0.61400  0.68400  0.88600  1.0000
  P   P2        1.0  0.38600  0.31600  0.11400  1.0000
  P   P3        1.0  0.80400  0.40400  0.59800  1.0000
  P   P4        1.0  0.19600  0.59600  0.40200  1.0000
  P   P5        1.0  0.92000  0.27800  0.01820  1.0000
  P   P6        1.0  0.07990  0.72200  0.98200  1.0000
  Sn  Sn1       1.0  0.20900  0.04660  0.75900  1.0000
  Sn  Sn2       1.0  0.79100  0.95300  0.24100  1.0000
  Sn  Sn3       1.0  0.46300  0.81800  0.50400  1.0000
  Sn  Sn4       1.0  0.53700  0.18200  0.49600  1.0000
  Sn  Sn5       1.0  0.69800  0.55400  0.25900  1.0000
  Sn  Sn6       1.0  0.30200  0.44600  0.74100  1.0000
  Sn  Sn7       1.0  0.35300  0.91100  0.13000  1.0000
  Sn  Sn8       1.0  0.64700  0.08930  0.87000  1.0000
  Sn  Sn9       1.0  0.03110  0.18600  0.37200  1.0000
  Sn  Sn10      1.0  0.96900  0.81400  0.62800  1.0000
