data_image0
_chemical_formula_structural       Li12O48Sn18Zn6
_chemical_formula_sum              "Li12 O48 Sn18 Zn6"
_cell_length_a       10.4526
_cell_length_b       10.4526
_cell_length_c       9.83337
_cell_angle_alpha    90
_cell_angle_beta     90
_cell_angle_gamma    120.111

_space_group_name_H-M_alt    "P 1"
_space_group_IT_number       1

loop_
  _space_group_symop_operation_xyz
  'x, y, z'

loop_
  _atom_site_type_symbol
  _atom_site_label
  _atom_site_symmetry_multiplicity
  _atom_site_fract_x
  _atom_site_fract_y
  _atom_site_fract_z
  _atom_site_occupancy
  Li  Li1       1.0  0.33500  0.83500  0.00936  1.0000
  Li  Li2       1.0  0.69400  0.33300  0.78300  1.0000
  Li  Li3       1.0  0.30600  0.66700  0.28300  1.0000
  Li  Li4       1.0  0.33300  0.69400  0.78300  1.0000
  Li  Li5       1.0  0.66700  0.30600  0.28300  1.0000
  Li  Li6       1.0  0.98000  0.98000  0.78500  1.0000
  Li  Li7       1.0  0.01990  0.01990  0.28500  1.0000
  Li  Li8       1.0  0.16700  0.16700  0.50900  1.0000
  Li  Li9       1.0  0.83300  0.83300  0.00900  1.0000
  Li  Li10      1.0  0.16500  0.66500  0.50900  1.0000
  Li  Li11      1.0  0.83500  0.33500  0.00936  1.0000
  Li  Li12      1.0  0.66500  0.16500  0.50900  1.0000
  O   O1        1.0  0.84900  0.66800  0.62900  1.0000
  O   O2        1.0  0.15100  0.33200  0.12900  1.0000
  O   O3        1.0  0.66800  0.84900  0.62900  1.0000
  O   O4        1.0  0.33200  0.15100  0.12900  1.0000
  O   O5        1.0  0.33400  0.18200  0.64200  1.0000
  O   O6        1.0  0.66600  0.81800  0.14200  1.0000
  O   O7        1.0  0.18200  0.33400  0.64200  1.0000
  O   O8        1.0  0.81800  0.66600  0.14200  1.0000
  O   O9        1.0  0.15400  0.82100  0.64000  1.0000
  O   O10       1.0  0.84600  0.17900  0.14000  1.0000
  O   O11       1.0  0.82100  0.15400  0.64000  1.0000
  O   O12       1.0  0.17900  0.84600  0.14000  1.0000
  O   O13       1.0  0.99600  0.51200  0.64000  1.0000
  O   O14       1.0  0.00359  0.48800  0.14000  1.0000
  O   O15       1.0  0.51200  0.99600  0.64000  1.0000
  O   O16       1.0  0.48800  0.00359  0.14000  1.0000
  O   O17       1.0  0.66500  0.33400  0.60500  1.0000
  O   O18       1.0  0.33500  0.66600  0.10500  1.0000
  O   O19       1.0  0.33400  0.66500  0.60500  1.0000
  O   O20       1.0  0.66600  0.33500  0.10500  1.0000
  O   O21       1.0  0.84300  0.84300  0.38700  1.0000
  O   O22       1.0  0.15700  0.15700  0.88700  1.0000
  O   O23       1.0  0.16900  0.00520  0.38400  1.0000
  O   O24       1.0  0.83100  0.99500  0.88400  1.0000
  O   O25       1.0  0.00520  0.16900  0.38400  1.0000
  O   O26       1.0  0.99500  0.83100  0.88400  1.0000
  O   O27       1.0  0.33500  0.33500  0.39100  1.0000
  O   O28       1.0  0.66500  0.66500  0.89100  1.0000
  O   O29       1.0  0.66500  0.49300  0.38700  1.0000
  O   O30       1.0  0.33500  0.50700  0.88700  1.0000
  O   O31       1.0  0.49300  0.66500  0.38700  1.0000
  O   O32       1.0  0.50700  0.33500  0.88700  1.0000
  O   O33       1.0  0.82800  0.32900  0.38600  1.0000
  O   O34       1.0  0.17200  0.67100  0.88600  1.0000
  O   O35       1.0  0.32900  0.82800  0.38600  1.0000
  O   O36       1.0  0.67100  0.17200  0.88600  1.0000
  O   O37       1.0  0.50000  0.16500  0.38400  1.0000
  O   O38       1.0  0.50000  0.83500  0.88400  1.0000
  O   O39       1.0  0.16500  0.50000  0.38400  1.0000
  O   O40       1.0  0.83500  0.50000  0.88400  1.0000
  O   O41       1.0  0.99900  0.66700  0.39500  1.0000
  O   O42       1.0  0.00148  0.33300  0.89500  1.0000
  O   O43       1.0  0.66700  0.99900  0.39500  1.0000
  O   O44       1.0  0.33300  0.00148  0.89500  1.0000
  O   O45       1.0  0.00000  0.00000  0.60500  1.0000
  O   O46       1.0  0.00010  0.00010  0.10500  1.0000
  O   O47       1.0  0.48300  0.48300  0.63100  1.0000
  O   O48       1.0  0.51700  0.51700  0.13100  1.0000
  Sn  Sn1       1.0  0.01790  0.84300  0.50300  1.0000
  Sn  Sn2       1.0  0.98200  0.15700  0.00331  1.0000
  Sn  Sn3       1.0  0.84300  0.01790  0.50300  1.0000
  Sn  Sn4       1.0  0.15700  0.98200  0.00331  1.0000
  Sn  Sn5       1.0  0.83900  0.49300  0.50300  1.0000
  Sn  Sn6       1.0  0.16100  0.50700  0.00313  1.0000
  Sn  Sn7       1.0  0.49300  0.83900  0.50300  1.0000
  Sn  Sn8       1.0  0.50700  0.16100  0.00313  1.0000
  Sn  Sn9       1.0  0.49000  0.31700  0.50300  1.0000
  Sn  Sn10      1.0  0.51000  0.68300  0.00309  1.0000
  Sn  Sn11      1.0  0.31700  0.49000  0.50300  1.0000
  Sn  Sn12      1.0  0.68300  0.51000  0.00309  1.0000
  Sn  Sn13      1.0  0.00494  0.66800  0.78300  1.0000
  Sn  Sn14      1.0  0.99500  0.33200  0.28300  1.0000
  Sn  Sn15      1.0  0.66800  0.00494  0.78300  1.0000
  Sn  Sn16      1.0  0.33200  0.99500  0.28300  1.0000
  Sn  Sn17      1.0  0.32900  0.32900  0.78400  1.0000
  Sn  Sn18      1.0  0.67100  0.67100  0.28400  1.0000
  Zn  Zn1       1.0  0.66700  0.66700  0.68900  1.0000
  Zn  Zn2       1.0  0.33300  0.33300  0.18900  1.0000
  Zn  Zn3       1.0  0.33500  0.00025  0.69400  1.0000
  Zn  Zn4       1.0  0.66500  0.00000  0.19400  1.0000
  Zn  Zn5       1.0  0.00025  0.33500  0.69400  1.0000
  Zn  Zn6       1.0  0.00000  0.66500  0.19400  1.0000
