data_image0
_chemical_formula_structural       H36Li2N4O38V10
_chemical_formula_sum              "H36 Li2 N4 O38 V10"
_cell_length_a       7.84472
_cell_length_b       9.32211
_cell_length_c       9.97813
_cell_angle_alpha    70.6198
_cell_angle_beta     85.7743
_cell_angle_gamma    68.6296

_space_group_name_H-M_alt    "P 1"
_space_group_IT_number       1

loop_
  _space_group_symop_operation_xyz
  'x, y, z'

loop_
  _atom_site_type_symbol
  _atom_site_label
  _atom_site_symmetry_multiplicity
  _atom_site_fract_x
  _atom_site_fract_y
  _atom_site_fract_z
  _atom_site_occupancy
  H   H1        1.0  0.25800  0.90300  0.44600  1.0000
  H   H2        1.0  0.62200  0.19200  0.89300  1.0000
  H   H3        1.0  0.37800  0.80800  0.10700  1.0000
  H   H4        1.0  0.87500  0.11100  0.27200  1.0000
  H   H5        1.0  0.12500  0.88900  0.72900  1.0000
  H   H6        1.0  0.39400  0.47600  0.77000  1.0000
  H   H7        1.0  0.60600  0.52400  0.23000  1.0000
  H   H8        1.0  0.47400  0.08310  0.32000  1.0000
  H   H9        1.0  0.52600  0.91700  0.68000  1.0000
  H   H10       1.0  0.92100  0.25500  0.16500  1.0000
  H   H11       1.0  0.07940  0.74500  0.83500  1.0000
  H   H12       1.0  0.24500  0.57700  0.06570  1.0000
  H   H13       1.0  0.75500  0.42300  0.93400  1.0000
  H   H14       1.0  0.59800  0.44200  0.74400  1.0000
  H   H15       1.0  0.40200  0.55800  0.25600  1.0000
  H   H16       1.0  0.23200  0.48900  0.96300  1.0000
  H   H17       1.0  0.76800  0.51100  0.03690  1.0000
  H   H18       1.0  0.76200  0.85500  0.01920  1.0000
  H   H19       1.0  0.23800  0.14500  0.98100  1.0000
  H   H20       1.0  0.70500  0.11800  0.04910  1.0000
  H   H21       1.0  0.29500  0.88200  0.95100  1.0000
  H   H22       1.0  0.69200  0.93000  0.84800  1.0000
  H   H23       1.0  0.30800  0.06970  0.15200  1.0000
  H   H24       1.0  0.80900  0.73000  0.92100  1.0000
  H   H25       1.0  0.19100  0.27000  0.07930  1.0000
  H   H26       1.0  0.37600  0.27300  0.28400  1.0000
  H   H27       1.0  0.62400  0.72700  0.71600  1.0000
  H   H28       1.0  0.77700  0.24300  0.41000  1.0000
  H   H29       1.0  0.22300  0.75700  0.59000  1.0000
  H   H30       1.0  0.61700  0.17000  0.39300  1.0000
  H   H31       1.0  0.38300  0.83000  0.60700  1.0000
  H   H32       1.0  0.58300  0.28900  0.49300  1.0000
  H   H33       1.0  0.41700  0.71100  0.50700  1.0000
  H   H34       1.0  0.74200  0.09710  0.55400  1.0000
  H   H35       1.0  0.58900  0.81200  0.96500  1.0000
  H   H36       1.0  0.41100  0.18800  0.03480  1.0000
  Li  Li1       1.0  0.56800  0.35000  0.11100  1.0000
  Li  Li2       1.0  0.43200  0.65000  0.88900  1.0000
  N   N1        1.0  0.71300  0.83200  0.93900  1.0000
  N   N2        1.0  0.28700  0.16800  0.06090  1.0000
  N   N3        1.0  0.68200  0.19600  0.46500  1.0000
  N   N4        1.0  0.31800  0.80400  0.53500  1.0000
  O   O1        1.0  0.04880  0.68600  0.13300  1.0000
  O   O2        1.0  0.95100  0.31400  0.86700  1.0000
  O   O3        1.0  0.76100  0.91800  0.17800  1.0000
  O   O4        1.0  0.23900  0.08220  0.82200  1.0000
  O   O5        1.0  0.09940  0.63300  0.60200  1.0000
  O   O6        1.0  0.90100  0.36700  0.39800  1.0000
  O   O7        1.0  0.19900  0.40000  0.35000  1.0000
  O   O8        1.0  0.80100  0.60000  0.65000  1.0000
  O   O9        1.0  0.92000  0.63600  0.39500  1.0000
  O   O10       1.0  0.07960  0.36400  0.60500  1.0000
  O   O11       1.0  0.32100  0.49400  0.02300  1.0000
  O   O12       1.0  0.67900  0.50600  0.97700  1.0000
  O   O13       1.0  0.48500  0.52900  0.75200  1.0000
  O   O14       1.0  0.51500  0.47100  0.24800  1.0000
  O   O15       1.0  0.81900  0.21800  0.19800  1.0000
  O   O16       1.0  0.18100  0.78200  0.80200  1.0000
  O   O17       1.0  0.82700  0.88800  0.64900  1.0000
  O   O18       1.0  0.17300  0.11200  0.35100  1.0000
  O   O19       1.0  0.99000  0.59000  0.87400  1.0000
  O   O20       1.0  0.01020  0.41000  0.12600  1.0000
  O   O21       1.0  0.08080  0.97500  0.12000  1.0000
  O   O22       1.0  0.91900  0.02470  0.88000  1.0000
  O   O23       1.0  0.43100  0.87400  0.23600  1.0000
  O   O24       1.0  0.56900  0.12600  0.76400  1.0000
  O   O25       1.0  0.95500  0.91500  0.38500  1.0000
  O   O26       1.0  0.04450  0.08470  0.61500  1.0000
  O   O27       1.0  0.23400  0.68300  0.33800  1.0000
  O   O28       1.0  0.76600  0.31700  0.66200  1.0000
  O   O29       1.0  0.26900  0.36100  0.80700  1.0000
  O   O30       1.0  0.73100  0.63900  0.19300  1.0000
  O   O31       1.0  0.63500  0.87400  0.43900  1.0000
  O   O32       1.0  0.36500  0.12600  0.56100  1.0000
  O   O33       1.0  0.39600  0.40100  0.55800  1.0000
  O   O34       1.0  0.60400  0.59900  0.44200  1.0000
  O   O35       1.0  0.61400  0.21500  0.98300  1.0000
  O   O36       1.0  0.38600  0.78500  0.01740  1.0000
  O   O37       1.0  0.48100  0.18800  0.26100  1.0000
  O   O38       1.0  0.51900  0.81200  0.73900  1.0000
  V   V1        1.0  0.35500  0.21200  0.70500  1.0000
  V   V2        1.0  0.64500  0.78800  0.29500  1.0000
  V   V3        1.0  0.86000  0.79800  0.52900  1.0000
  V   V4        1.0  0.14000  0.20200  0.47100  1.0000
  V   V5        1.0  0.02850  0.47900  0.77000  1.0000
  V   V6        1.0  0.97200  0.52100  0.23000  1.0000
  V   V7        1.0  0.19300  0.52500  0.46800  1.0000
  V   V8        1.0  0.80700  0.47500  0.53200  1.0000
  V   V9        1.0  0.01000  0.84000  0.22700  1.0000
  V   V10       1.0  0.99000  0.16000  0.77300  1.0000
