data_image0
_chemical_formula_structural       Cs12S16Ta4
_chemical_formula_sum              "Cs12 S16 Ta4"
_cell_length_a       10.0082
_cell_length_b       11.673
_cell_length_c       10.1453
_cell_angle_alpha    90
_cell_angle_beta     90
_cell_angle_gamma    90

_space_group_name_H-M_alt    "P 1"
_space_group_IT_number       1

loop_
  _space_group_symop_operation_xyz
  'x, y, z'

loop_
  _atom_site_type_symbol
  _atom_site_label
  _atom_site_symmetry_multiplicity
  _atom_site_fract_x
  _atom_site_fract_y
  _atom_site_fract_z
  _atom_site_occupancy
  Cs  Cs1       1.0  0.04650  0.53900  0.29400  1.0000
  Cs  Cs2       1.0  0.45400  0.46100  0.79400  1.0000
  Cs  Cs3       1.0  0.54600  0.96100  0.20600  1.0000
  Cs  Cs4       1.0  0.95400  0.03920  0.70600  1.0000
  Cs  Cs5       1.0  0.95400  0.46100  0.70600  1.0000
  Cs  Cs6       1.0  0.54600  0.53900  0.20600  1.0000
  Cs  Cs7       1.0  0.45400  0.03920  0.79400  1.0000
  Cs  Cs8       1.0  0.04650  0.96100  0.29400  1.0000
  Cs  Cs9       1.0  0.14400  0.25000  0.07930  1.0000
  Cs  Cs10      1.0  0.35600  0.75000  0.57900  1.0000
  Cs  Cs11      1.0  0.64400  0.25000  0.42100  1.0000
  Cs  Cs12      1.0  0.85600  0.75000  0.92100  1.0000
  S   S1        1.0  0.20800  0.25000  0.74300  1.0000
  S   S2        1.0  0.29200  0.75000  0.24300  1.0000
  S   S3        1.0  0.70800  0.25000  0.75700  1.0000
  S   S4        1.0  0.79200  0.75000  0.25700  1.0000
  S   S5        1.0  0.01140  0.25000  0.43000  1.0000
  S   S6        1.0  0.48900  0.75000  0.93000  1.0000
  S   S7        1.0  0.51100  0.25000  0.07010  1.0000
  S   S8        1.0  0.98900  0.75000  0.57000  1.0000
  S   S9        1.0  0.33200  0.08750  0.45400  1.0000
  S   S10       1.0  0.16800  0.91300  0.95400  1.0000
  S   S11       1.0  0.83200  0.41300  0.04570  1.0000
  S   S12       1.0  0.66800  0.58700  0.54600  1.0000
  S   S13       1.0  0.66800  0.91300  0.54600  1.0000
  S   S14       1.0  0.83200  0.08750  0.04570  1.0000
  S   S15       1.0  0.16800  0.58700  0.95400  1.0000
  S   S16       1.0  0.33200  0.41300  0.45400  1.0000
  Ta  Ta1       1.0  0.22300  0.25000  0.51800  1.0000
  Ta  Ta2       1.0  0.27700  0.75000  0.01810  1.0000
  Ta  Ta3       1.0  0.72300  0.25000  0.98200  1.0000
  Ta  Ta4       1.0  0.77700  0.75000  0.48200  1.0000
