data_image0
_chemical_formula_structural       In8Mn4Te16
_chemical_formula_sum              "In8 Mn4 Te16"
_cell_length_a       28.5293
_cell_length_b       4.46136
_cell_length_c       7.17593
_cell_angle_alpha    90
_cell_angle_beta     90
_cell_angle_gamma    90

_space_group_name_H-M_alt    "P 1"
_space_group_IT_number       1

loop_
  _space_group_symop_operation_xyz
  'x, y, z'

loop_
  _atom_site_type_symbol
  _atom_site_label
  _atom_site_symmetry_multiplicity
  _atom_site_fract_x
  _atom_site_fract_y
  _atom_site_fract_z
  _atom_site_occupancy
  In  In1       1.0  0.15200  0.25000  0.47100  1.0000
  In  In2       1.0  0.34800  0.75000  0.97100  1.0000
  In  In3       1.0  0.65200  0.25000  0.02870  1.0000
  In  In4       1.0  0.84800  0.75000  0.52900  1.0000
  In  In5       1.0  0.04930  0.25000  0.07660  1.0000
  In  In6       1.0  0.45100  0.75000  0.57700  1.0000
  In  In7       1.0  0.54900  0.25000  0.42300  1.0000
  In  In8       1.0  0.95100  0.75000  0.92300  1.0000
  Mn  Mn1       1.0  0.30500  0.25000  0.35900  1.0000
  Mn  Mn2       1.0  0.19500  0.75000  0.85900  1.0000
  Mn  Mn3       1.0  0.80500  0.25000  0.14100  1.0000
  Mn  Mn4       1.0  0.69500  0.75000  0.64100  1.0000
  Te  Te1       1.0  0.23800  0.25000  0.66500  1.0000
  Te  Te2       1.0  0.26200  0.75000  0.16500  1.0000
  Te  Te3       1.0  0.73800  0.25000  0.83500  1.0000
  Te  Te4       1.0  0.76200  0.75000  0.33500  1.0000
  Te  Te5       1.0  0.89200  0.25000  0.35500  1.0000
  Te  Te6       1.0  0.60800  0.75000  0.85500  1.0000
  Te  Te7       1.0  0.39200  0.25000  0.14500  1.0000
  Te  Te8       1.0  0.10800  0.75000  0.64500  1.0000
  Te  Te9       1.0  0.14900  0.25000  0.07650  1.0000
  Te  Te10      1.0  0.35100  0.75000  0.57600  1.0000
  Te  Te11      1.0  0.64900  0.25000  0.42400  1.0000
  Te  Te12      1.0  0.85100  0.75000  0.92400  1.0000
  Te  Te13      1.0  0.99500  0.25000  0.73600  1.0000
  Te  Te14      1.0  0.50500  0.75000  0.23600  1.0000
  Te  Te15      1.0  0.49500  0.25000  0.76400  1.0000
  Te  Te16      1.0  0.00483  0.75000  0.26400  1.0000
