data_image0
_chemical_formula_structural       C12O12PtRe2
_chemical_formula_sum              "C12 O12 Pt1 Re2"
_cell_length_a       6.7
_cell_length_b       9.50788
_cell_length_c       5.97942
_cell_angle_alpha    92.8176
_cell_angle_beta     91.0342
_cell_angle_gamma    72.2218

_space_group_name_H-M_alt    "P 1"
_space_group_IT_number       1

loop_
  _space_group_symop_operation_xyz
  'x, y, z'

loop_
  _atom_site_type_symbol
  _atom_site_label
  _atom_site_symmetry_multiplicity
  _atom_site_fract_x
  _atom_site_fract_y
  _atom_site_fract_z
  _atom_site_occupancy
  C   C1        1.0  0.27600  0.95700  0.11400  1.0000
  C   C2        1.0  0.72400  0.04290  0.88600  1.0000
  C   C3        1.0  0.71800  0.35200  0.94200  1.0000
  C   C4        1.0  0.28200  0.64800  0.05800  1.0000
  C   C5        1.0  0.79800  0.46900  0.37900  1.0000
  C   C6        1.0  0.20200  0.53100  0.62100  1.0000
  C   C7        1.0  0.13000  0.31300  0.08190  1.0000
  C   C8        1.0  0.87000  0.68700  0.91800  1.0000
  C   C9        1.0  0.64900  0.21100  0.32900  1.0000
  C   C10       1.0  0.35100  0.78900  0.67100  1.0000
  C   C11       1.0  0.05840  0.18200  0.47000  1.0000
  C   C12       1.0  0.94200  0.81800  0.53000  1.0000
  O   O1        1.0  0.44600  0.92700  0.18100  1.0000
  O   O2        1.0  0.55400  0.07280  0.81900  1.0000
  O   O3        1.0  0.62800  0.39000  0.77800  1.0000
  O   O4        1.0  0.37200  0.61000  0.22200  1.0000
  O   O5        1.0  0.16100  0.12500  0.61600  1.0000
  O   O6        1.0  0.83900  0.87500  0.38400  1.0000
  O   O7        1.0  0.52200  0.16300  0.39000  1.0000
  O   O8        1.0  0.47800  0.83700  0.61000  1.0000
  O   O9        1.0  0.27600  0.33200  0.00192  1.0000
  O   O10       1.0  0.72400  0.66800  0.99800  1.0000
  O   O11       1.0  0.75500  0.58100  0.48200  1.0000
  O   O12       1.0  0.24500  0.41900  0.51800  1.0000
  Pt  Pt1       1.0  0.00000  0.00000  1.00000  1.0000
  Re  Re1       1.0  0.88100  0.28100  0.21800  1.0000
  Re  Re2       1.0  0.11900  0.71900  0.78200  1.0000
