data_image0
_chemical_formula_structural       Cs8Se20
_chemical_formula_sum              "Cs8 Se20"
_cell_length_a       7.56571
_cell_length_b       19.1299
_cell_length_c       7.13213
_cell_angle_alpha    90
_cell_angle_beta     90
_cell_angle_gamma    90

_space_group_name_H-M_alt    "P 1"
_space_group_IT_number       1

loop_
  _space_group_symop_operation_xyz
  'x, y, z'

loop_
  _atom_site_type_symbol
  _atom_site_label
  _atom_site_symmetry_multiplicity
  _atom_site_fract_x
  _atom_site_fract_y
  _atom_site_fract_z
  _atom_site_occupancy
  Cs  Cs1       1.0  0.42000  0.51000  0.61400  1.0000
  Cs  Cs2       1.0  0.08010  0.49000  0.11400  1.0000
  Cs  Cs3       1.0  0.92000  0.99000  0.38600  1.0000
  Cs  Cs4       1.0  0.58000  0.01040  0.88600  1.0000
  Cs  Cs5       1.0  0.24900  0.83800  0.08160  1.0000
  Cs  Cs6       1.0  0.25100  0.16200  0.58200  1.0000
  Cs  Cs7       1.0  0.74900  0.66200  0.91800  1.0000
  Cs  Cs8       1.0  0.75100  0.33800  0.41800  1.0000
  Se  Se1       1.0  0.24800  0.66100  0.93700  1.0000
  Se  Se2       1.0  0.25200  0.33900  0.43700  1.0000
  Se  Se3       1.0  0.74800  0.83900  0.06270  1.0000
  Se  Se4       1.0  0.75200  0.16100  0.56300  1.0000
  Se  Se5       1.0  0.34400  0.65300  0.25200  1.0000
  Se  Se6       1.0  0.15600  0.34700  0.75200  1.0000
  Se  Se7       1.0  0.84400  0.84700  0.74800  1.0000
  Se  Se8       1.0  0.65600  0.15300  0.24800  1.0000
  Se  Se9       1.0  0.12400  0.70000  0.46100  1.0000
  Se  Se10      1.0  0.37600  0.30000  0.96100  1.0000
  Se  Se11      1.0  0.62400  0.80000  0.53900  1.0000
  Se  Se12      1.0  0.87600  0.20000  0.03860  1.0000
  Se  Se13      1.0  0.87100  0.62500  0.43300  1.0000
  Se  Se14      1.0  0.62900  0.37500  0.93300  1.0000
  Se  Se15      1.0  0.37100  0.87500  0.56700  1.0000
  Se  Se16      1.0  0.12900  0.12500  0.06690  1.0000
  Se  Se17      1.0  0.92200  0.52000  0.59900  1.0000
  Se  Se18      1.0  0.57800  0.48000  0.09920  1.0000
  Se  Se19      1.0  0.42200  0.98000  0.40100  1.0000
  Se  Se20      1.0  0.07760  0.02040  0.90100  1.0000
