data_image0
_chemical_formula_structural       As12Ca12Ga4
_chemical_formula_sum              "As12 Ca12 Ga4"
_cell_length_a       12.2293
_cell_length_b       4.21618
_cell_length_c       13.4819
_cell_angle_alpha    90
_cell_angle_beta     90
_cell_angle_gamma    90

_space_group_name_H-M_alt    "P 1"
_space_group_IT_number       1

loop_
  _space_group_symop_operation_xyz
  'x, y, z'

loop_
  _atom_site_type_symbol
  _atom_site_label
  _atom_site_symmetry_multiplicity
  _atom_site_fract_x
  _atom_site_fract_y
  _atom_site_fract_z
  _atom_site_occupancy
  As  As1       1.0  0.04160  0.25000  0.35200  1.0000
  As  As2       1.0  0.45800  0.75000  0.85200  1.0000
  As  As3       1.0  0.54200  0.25000  0.14800  1.0000
  As  As4       1.0  0.95800  0.75000  0.64800  1.0000
  As  As5       1.0  0.75300  0.25000  0.87800  1.0000
  As  As6       1.0  0.74700  0.75000  0.37800  1.0000
  As  As7       1.0  0.25300  0.25000  0.62200  1.0000
  As  As8       1.0  0.24700  0.75000  0.12200  1.0000
  As  As9       1.0  0.61000  0.25000  0.61200  1.0000
  As  As10      1.0  0.89000  0.75000  0.11200  1.0000
  As  As11      1.0  0.11000  0.25000  0.88800  1.0000
  As  As12      1.0  0.39000  0.75000  0.38800  1.0000
  Ca  Ca1       1.0  0.35100  0.25000  0.99900  1.0000
  Ca  Ca2       1.0  0.14900  0.75000  0.49900  1.0000
  Ca  Ca3       1.0  0.85100  0.25000  0.50100  1.0000
  Ca  Ca4       1.0  0.64900  0.75000  0.00079  1.0000
  Ca  Ca5       1.0  0.56000  0.25000  0.39100  1.0000
  Ca  Ca6       1.0  0.94000  0.75000  0.89100  1.0000
  Ca  Ca7       1.0  0.06050  0.25000  0.10900  1.0000
  Ca  Ca8       1.0  0.44000  0.75000  0.60900  1.0000
  Ca  Ca9       1.0  0.27100  0.25000  0.28300  1.0000
  Ca  Ca10      1.0  0.22900  0.75000  0.78300  1.0000
  Ca  Ca11      1.0  0.77100  0.25000  0.21700  1.0000
  Ca  Ca12      1.0  0.72900  0.75000  0.71700  1.0000
  Ga  Ga1       1.0  0.56500  0.25000  0.79800  1.0000
  Ga  Ga2       1.0  0.93500  0.75000  0.29800  1.0000
  Ga  Ga3       1.0  0.06460  0.25000  0.70200  1.0000
  Ga  Ga4       1.0  0.43500  0.75000  0.20200  1.0000
