data_image0
_chemical_formula_structural       Ni2O6Pr2
_chemical_formula_sum              "Ni2 O6 Pr2"
_cell_length_a       5.32554
_cell_length_b       5.32554
_cell_length_c       5.32554
_cell_angle_alpha    118.31
_cell_angle_beta     61.6896
_cell_angle_gamma    118.31

_space_group_name_H-M_alt    "P 1"
_space_group_IT_number       1

loop_
  _space_group_symop_operation_xyz
  'x, y, z'

loop_
  _atom_site_type_symbol
  _atom_site_label
  _atom_site_symmetry_multiplicity
  _atom_site_fract_x
  _atom_site_fract_y
  _atom_site_fract_z
  _atom_site_occupancy
  Ni  Ni1       1.0  0.00000  0.00000  0.00000  1.0000
  Ni  Ni2       1.0  0.50000  0.50000  0.50000  1.0000
  O   O1        1.0  0.31200  0.25000  0.18800  1.0000
  O   O2        1.0  0.81200  0.31200  0.25000  1.0000
  O   O3        1.0  0.75000  0.81200  0.31200  1.0000
  O   O4        1.0  0.25000  0.18800  0.68800  1.0000
  O   O5        1.0  0.18800  0.68800  0.75000  1.0000
  O   O6        1.0  0.68800  0.75000  0.81200  1.0000
  Pr  Pr1       1.0  0.25000  0.75000  0.25000  1.0000
  Pr  Pr2       1.0  0.75000  0.25000  0.75000  1.0000
