data_image0
_chemical_formula_structural       Cr8F48Li12Na12
_chemical_formula_sum              "Cr8 F48 Li12 Na12"
_cell_length_a       10.0455
_cell_length_b       10.0455
_cell_length_c       10.0455
_cell_angle_alpha    109.471
_cell_angle_beta     109.471
_cell_angle_gamma    109.471

_space_group_name_H-M_alt    "P 1"
_space_group_IT_number       1

loop_
  _space_group_symop_operation_xyz
  'x, y, z'

loop_
  _atom_site_type_symbol
  _atom_site_label
  _atom_site_symmetry_multiplicity
  _atom_site_fract_x
  _atom_site_fract_y
  _atom_site_fract_z
  _atom_site_occupancy
  Cr  Cr1       1.0  0.00000  0.50000  0.00000  1.0000
  Cr  Cr2       1.0  0.00000  0.00000  0.50000  1.0000
  Cr  Cr3       1.0  0.50000  0.00000  0.00000  1.0000
  Cr  Cr4       1.0  0.50000  0.50000  0.50000  1.0000
  Cr  Cr5       1.0  0.00000  0.50000  0.50000  1.0000
  Cr  Cr6       1.0  0.50000  0.50000  0.00000  1.0000
  Cr  Cr7       1.0  0.50000  0.00000  0.50000  1.0000
  Cr  Cr8       1.0  0.00000  0.00000  0.00000  1.0000
  F   F1        1.0  0.20800  0.11500  0.02720  1.0000
  F   F2        1.0  0.58800  0.18000  0.47300  1.0000
  F   F3        1.0  0.09220  0.88500  0.41200  1.0000
  F   F4        1.0  0.79200  0.40800  0.82000  1.0000
  F   F5        1.0  0.40800  0.82000  0.79200  1.0000
  F   F6        1.0  0.08830  0.97300  0.68000  1.0000
  F   F7        1.0  0.97300  0.68000  0.08830  1.0000
  F   F8        1.0  0.41200  0.09220  0.88500  1.0000
  F   F9        1.0  0.52700  0.61500  0.70800  1.0000
  F   F10       1.0  0.70800  0.52700  0.61500  1.0000
  F   F11       1.0  0.88500  0.41200  0.09220  1.0000
  F   F12       1.0  0.82000  0.79200  0.40800  1.0000
  F   F13       1.0  0.68000  0.08830  0.97300  1.0000
  F   F14       1.0  0.61500  0.70800  0.52700  1.0000
  F   F15       1.0  0.61500  0.40800  0.08830  1.0000
  F   F16       1.0  0.09220  0.70800  0.68000  1.0000
  F   F17       1.0  0.68000  0.09220  0.70800  1.0000
  F   F18       1.0  0.52700  0.41200  0.82000  1.0000
  F   F19       1.0  0.82000  0.52700  0.41200  1.0000
  F   F20       1.0  0.40800  0.08830  0.61500  1.0000
  F   F21       1.0  0.88500  0.97300  0.79200  1.0000
  F   F22       1.0  0.97300  0.79200  0.88500  1.0000
  F   F23       1.0  0.08830  0.61500  0.40800  1.0000
  F   F24       1.0  0.70800  0.68000  0.09220  1.0000
  F   F25       1.0  0.41200  0.82000  0.52700  1.0000
  F   F26       1.0  0.79200  0.88500  0.97300  1.0000
  F   F27       1.0  0.90800  0.11500  0.58800  1.0000
  F   F28       1.0  0.20800  0.59200  0.18000  1.0000
  F   F29       1.0  0.59200  0.18000  0.20800  1.0000
  F   F30       1.0  0.91200  0.02720  0.32000  1.0000
  F   F31       1.0  0.02720  0.32000  0.91200  1.0000
  F   F32       1.0  0.58800  0.90800  0.11500  1.0000
  F   F33       1.0  0.47300  0.38500  0.29200  1.0000
  F   F34       1.0  0.29200  0.47300  0.38500  1.0000
  F   F35       1.0  0.11500  0.58800  0.90800  1.0000
  F   F36       1.0  0.18000  0.20800  0.59200  1.0000
  F   F37       1.0  0.32000  0.91200  0.02720  1.0000
  F   F38       1.0  0.38500  0.29200  0.47300  1.0000
  F   F39       1.0  0.38500  0.59200  0.91200  1.0000
  F   F40       1.0  0.90800  0.29200  0.32000  1.0000
  F   F41       1.0  0.32000  0.90800  0.29200  1.0000
  F   F42       1.0  0.47300  0.58800  0.18000  1.0000
  F   F43       1.0  0.18000  0.47300  0.58800  1.0000
  F   F44       1.0  0.59200  0.91200  0.38500  1.0000
  F   F45       1.0  0.11500  0.02720  0.20800  1.0000
  F   F46       1.0  0.02720  0.20800  0.11500  1.0000
  F   F47       1.0  0.91200  0.38500  0.59200  1.0000
  F   F48       1.0  0.29200  0.32000  0.90800  1.0000
  Li  Li1       1.0  0.37500  0.62500  0.75000  1.0000
  Li  Li2       1.0  0.62500  0.75000  0.37500  1.0000
  Li  Li3       1.0  0.87500  0.25000  0.12500  1.0000
  Li  Li4       1.0  0.12500  0.87500  0.25000  1.0000
  Li  Li5       1.0  0.75000  0.37500  0.62500  1.0000
  Li  Li6       1.0  0.25000  0.12500  0.87500  1.0000
  Li  Li7       1.0  0.87500  0.12500  0.75000  1.0000
  Li  Li8       1.0  0.75000  0.87500  0.12500  1.0000
  Li  Li9       1.0  0.25000  0.62500  0.37500  1.0000
  Li  Li10      1.0  0.62500  0.37500  0.25000  1.0000
  Li  Li11      1.0  0.12500  0.75000  0.87500  1.0000
  Li  Li12      1.0  0.37500  0.25000  0.62500  1.0000
  Na  Na1       1.0  0.12500  0.37500  0.75000  1.0000
  Na  Na2       1.0  0.87500  0.75000  0.62500  1.0000
  Na  Na3       1.0  0.62500  0.25000  0.87500  1.0000
  Na  Na4       1.0  0.62500  0.87500  0.75000  1.0000
  Na  Na5       1.0  0.75000  0.62500  0.87500  1.0000
  Na  Na6       1.0  0.25000  0.87500  0.62500  1.0000
  Na  Na7       1.0  0.87500  0.62500  0.25000  1.0000
  Na  Na8       1.0  0.75000  0.12500  0.37500  1.0000
  Na  Na9       1.0  0.25000  0.37500  0.12500  1.0000
  Na  Na10      1.0  0.37500  0.12500  0.25000  1.0000
  Na  Na11      1.0  0.37500  0.75000  0.12500  1.0000
  Na  Na12      1.0  0.12500  0.25000  0.37500  1.0000
