data_image0
_chemical_formula_structural       Co8F48Li12Na12
_chemical_formula_sum              "Co8 F48 Li12 Na12"
_cell_length_a       10.0197
_cell_length_b       10.0197
_cell_length_c       10.0197
_cell_angle_alpha    109.471
_cell_angle_beta     109.471
_cell_angle_gamma    109.471

_space_group_name_H-M_alt    "P 1"
_space_group_IT_number       1

loop_
  _space_group_symop_operation_xyz
  'x, y, z'

loop_
  _atom_site_type_symbol
  _atom_site_label
  _atom_site_symmetry_multiplicity
  _atom_site_fract_x
  _atom_site_fract_y
  _atom_site_fract_z
  _atom_site_occupancy
  Co  Co1       1.0  0.00000  0.50000  0.00000  1.0000
  Co  Co2       1.0  0.00000  0.00000  0.50000  1.0000
  Co  Co3       1.0  0.50000  0.00000  0.00000  1.0000
  Co  Co4       1.0  0.50000  0.50000  0.50000  1.0000
  Co  Co5       1.0  0.00000  0.50000  0.50000  1.0000
  Co  Co6       1.0  0.00000  0.00000  0.00000  1.0000
  Co  Co7       1.0  0.50000  0.50000  0.00000  1.0000
  Co  Co8       1.0  0.50000  0.00000  0.50000  1.0000
  F   F1        1.0  0.08830  0.61600  0.40700  1.0000
  F   F2        1.0  0.70900  0.68100  0.09300  1.0000
  F   F3        1.0  0.41200  0.81900  0.52700  1.0000
  F   F4        1.0  0.79100  0.88400  0.97300  1.0000
  F   F5        1.0  0.90700  0.11600  0.58800  1.0000
  F   F6        1.0  0.20900  0.59300  0.18100  1.0000
  F   F7        1.0  0.59300  0.18100  0.20900  1.0000
  F   F8        1.0  0.91200  0.02750  0.31900  1.0000
  F   F9        1.0  0.02750  0.31900  0.91200  1.0000
  F   F10       1.0  0.58800  0.90700  0.11600  1.0000
  F   F11       1.0  0.47300  0.38400  0.29100  1.0000
  F   F12       1.0  0.29100  0.47300  0.38400  1.0000
  F   F13       1.0  0.11600  0.58800  0.90700  1.0000
  F   F14       1.0  0.18100  0.20900  0.59300  1.0000
  F   F15       1.0  0.31900  0.91200  0.02750  1.0000
  F   F16       1.0  0.38400  0.29100  0.47300  1.0000
  F   F17       1.0  0.38400  0.59300  0.91200  1.0000
  F   F18       1.0  0.90700  0.29100  0.31900  1.0000
  F   F19       1.0  0.31900  0.90700  0.29100  1.0000
  F   F20       1.0  0.47300  0.58800  0.18100  1.0000
  F   F21       1.0  0.18100  0.47300  0.58800  1.0000
  F   F22       1.0  0.59300  0.91200  0.38400  1.0000
  F   F23       1.0  0.11600  0.02750  0.20900  1.0000
  F   F24       1.0  0.02750  0.20900  0.11600  1.0000
  F   F25       1.0  0.91200  0.38400  0.59300  1.0000
  F   F26       1.0  0.29100  0.31900  0.90700  1.0000
  F   F27       1.0  0.58800  0.18100  0.47300  1.0000
  F   F28       1.0  0.20900  0.11600  0.02750  1.0000
  F   F29       1.0  0.09300  0.88400  0.41200  1.0000
  F   F30       1.0  0.79100  0.40700  0.81900  1.0000
  F   F31       1.0  0.40700  0.81900  0.79100  1.0000
  F   F32       1.0  0.08830  0.97300  0.68100  1.0000
  F   F33       1.0  0.97300  0.68100  0.08830  1.0000
  F   F34       1.0  0.41200  0.09300  0.88400  1.0000
  F   F35       1.0  0.52700  0.61600  0.70900  1.0000
  F   F36       1.0  0.70900  0.52700  0.61600  1.0000
  F   F37       1.0  0.88400  0.41200  0.09300  1.0000
  F   F38       1.0  0.81900  0.79100  0.40700  1.0000
  F   F39       1.0  0.68100  0.08830  0.97300  1.0000
  F   F40       1.0  0.61600  0.70900  0.52700  1.0000
  F   F41       1.0  0.61600  0.40700  0.08830  1.0000
  F   F42       1.0  0.09300  0.70900  0.68100  1.0000
  F   F43       1.0  0.68100  0.09300  0.70900  1.0000
  F   F44       1.0  0.52700  0.41200  0.81900  1.0000
  F   F45       1.0  0.97300  0.79100  0.88400  1.0000
  F   F46       1.0  0.88400  0.97300  0.79100  1.0000
  F   F47       1.0  0.40700  0.08830  0.61600  1.0000
  F   F48       1.0  0.81900  0.52700  0.41200  1.0000
  Li  Li1       1.0  0.37500  0.62500  0.75000  1.0000
  Li  Li2       1.0  0.62500  0.75000  0.37500  1.0000
  Li  Li3       1.0  0.87500  0.25000  0.12500  1.0000
  Li  Li4       1.0  0.12500  0.87500  0.25000  1.0000
  Li  Li5       1.0  0.75000  0.37500  0.62500  1.0000
  Li  Li6       1.0  0.25000  0.12500  0.87500  1.0000
  Li  Li7       1.0  0.87500  0.12500  0.75000  1.0000
  Li  Li8       1.0  0.75000  0.87500  0.12500  1.0000
  Li  Li9       1.0  0.25000  0.62500  0.37500  1.0000
  Li  Li10      1.0  0.62500  0.37500  0.25000  1.0000
  Li  Li11      1.0  0.12500  0.75000  0.87500  1.0000
  Li  Li12      1.0  0.37500  0.25000  0.62500  1.0000
  Na  Na1       1.0  0.12500  0.37500  0.75000  1.0000
  Na  Na2       1.0  0.75000  0.12500  0.37500  1.0000
  Na  Na3       1.0  0.25000  0.37500  0.12500  1.0000
  Na  Na4       1.0  0.37500  0.12500  0.25000  1.0000
  Na  Na5       1.0  0.37500  0.75000  0.12500  1.0000
  Na  Na6       1.0  0.12500  0.25000  0.37500  1.0000
  Na  Na7       1.0  0.87500  0.62500  0.25000  1.0000
  Na  Na8       1.0  0.25000  0.87500  0.62500  1.0000
  Na  Na9       1.0  0.75000  0.62500  0.87500  1.0000
  Na  Na10      1.0  0.62500  0.87500  0.75000  1.0000
  Na  Na11      1.0  0.62500  0.25000  0.87500  1.0000
  Na  Na12      1.0  0.87500  0.75000  0.62500  1.0000
