data_image0
_chemical_formula_structural       Mn16O56
_chemical_formula_sum              "Mn16 O56"
_cell_length_a       6.28721
_cell_length_b       15.2025
_cell_length_c       8.56556
_cell_angle_alpha    90
_cell_angle_beta     98.779
_cell_angle_gamma    90

_space_group_name_H-M_alt    "P 1"
_space_group_IT_number       1

loop_
  _space_group_symop_operation_xyz
  'x, y, z'

loop_
  _atom_site_type_symbol
  _atom_site_label
  _atom_site_symmetry_multiplicity
  _atom_site_fract_x
  _atom_site_fract_y
  _atom_site_fract_z
  _atom_site_occupancy
  Mn  Mn1       1.0  0.91300  0.25200  0.38800  1.0000
  Mn  Mn2       1.0  0.36400  0.25200  0.54800  1.0000
  Mn  Mn3       1.0  0.63600  0.75200  0.95200  1.0000
  Mn  Mn4       1.0  0.63600  0.74800  0.45200  1.0000
  Mn  Mn5       1.0  0.36400  0.24800  0.04820  1.0000
  Mn  Mn6       1.0  0.08660  0.75200  0.11200  1.0000
  Mn  Mn7       1.0  0.08660  0.74800  0.61200  1.0000
  Mn  Mn8       1.0  0.91300  0.24800  0.88800  1.0000
  Mn  Mn9       1.0  0.78100  0.50100  0.67000  1.0000
  Mn  Mn10      1.0  0.21900  0.49900  0.33000  1.0000
  Mn  Mn11      1.0  0.21900  0.00147  0.83000  1.0000
  Mn  Mn12      1.0  0.78100  0.99900  0.17000  1.0000
  Mn  Mn13      1.0  0.77100  0.00014  0.66800  1.0000
  Mn  Mn14      1.0  0.22900  0.50000  0.83200  1.0000
  Mn  Mn15      1.0  0.77100  0.50000  0.16800  1.0000
  Mn  Mn16      1.0  0.22900  0.00000  0.33200  1.0000
  O   O1        1.0  0.83900  0.05940  0.53200  1.0000
  O   O2        1.0  0.16100  0.55900  0.96800  1.0000
  O   O3        1.0  0.83900  0.44100  0.03170  1.0000
  O   O4        1.0  0.16100  0.94100  0.46800  1.0000
  O   O5        1.0  0.41800  0.43600  0.89900  1.0000
  O   O6        1.0  0.58200  0.93600  0.60100  1.0000
  O   O7        1.0  0.58200  0.56400  0.10100  1.0000
  O   O8        1.0  0.41800  0.06450  0.39900  1.0000
  O   O9        1.0  0.29600  0.56100  0.69700  1.0000
  O   O10       1.0  0.70400  0.06090  0.80300  1.0000
  O   O11       1.0  0.70400  0.43900  0.30300  1.0000
  O   O12       1.0  0.29600  0.93900  0.19700  1.0000
  O   O13       1.0  0.72200  0.56500  0.80400  1.0000
  O   O14       1.0  0.27800  0.06470  0.69600  1.0000
  O   O15       1.0  0.27800  0.43500  0.19600  1.0000
  O   O16       1.0  0.72200  0.93500  0.30400  1.0000
  O   O17       1.0  0.58700  0.43800  0.60800  1.0000
  O   O18       1.0  0.41300  0.93800  0.89200  1.0000
  O   O19       1.0  0.41300  0.56200  0.39200  1.0000
  O   O20       1.0  0.58700  0.06220  0.10800  1.0000
  O   O21       1.0  0.84600  0.55900  0.53000  1.0000
  O   O22       1.0  0.15400  0.44100  0.47000  1.0000
  O   O23       1.0  0.15400  0.05870  0.97000  1.0000
  O   O24       1.0  0.00416  0.43900  0.75100  1.0000
  O   O25       1.0  0.84600  0.94100  0.03000  1.0000
  O   O26       1.0  0.99600  0.93900  0.74900  1.0000
  O   O27       1.0  0.99600  0.56100  0.24900  1.0000
  O   O28       1.0  0.00416  0.06140  0.25100  1.0000
  O   O29       1.0  0.98000  0.30800  0.24700  1.0000
  O   O30       1.0  0.02030  0.80800  0.25300  1.0000
  O   O31       1.0  0.02030  0.69200  0.75300  1.0000
  O   O32       1.0  0.98000  0.19200  0.74700  1.0000
  O   O33       1.0  0.72200  0.18700  0.32700  1.0000
  O   O34       1.0  0.27800  0.68700  0.17300  1.0000
  O   O35       1.0  0.27800  0.81300  0.67300  1.0000
  O   O36       1.0  0.72200  0.31300  0.82700  1.0000
  O   O37       1.0  0.85300  0.31600  0.52000  1.0000
  O   O38       1.0  0.14700  0.81600  0.98000  1.0000
  O   O39       1.0  0.14700  0.68400  0.48000  1.0000
  O   O40       1.0  0.85300  0.18400  0.02010  1.0000
  O   O41       1.0  0.29800  0.31200  0.68500  1.0000
  O   O42       1.0  0.70200  0.81200  0.81500  1.0000
  O   O43       1.0  0.70200  0.68800  0.31500  1.0000
  O   O44       1.0  0.29800  0.18800  0.18500  1.0000
  O   O45       1.0  0.55300  0.18800  0.61500  1.0000
  O   O46       1.0  0.44700  0.68800  0.88500  1.0000
  O   O47       1.0  0.44700  0.81200  0.38500  1.0000
  O   O48       1.0  0.55300  0.31200  0.11500  1.0000
  O   O49       1.0  0.42900  0.31200  0.41200  1.0000
  O   O50       1.0  0.57100  0.81200  0.08840  1.0000
  O   O51       1.0  0.57100  0.68800  0.58800  1.0000
  O   O52       1.0  0.42900  0.18800  0.91200  1.0000
  O   O53       1.0  0.13800  0.19000  0.47000  1.0000
  O   O54       1.0  0.86200  0.69000  0.02970  1.0000
  O   O55       1.0  0.13800  0.31000  0.97000  1.0000
  O   O56       1.0  0.86200  0.81000  0.53000  1.0000
