data_image0
_chemical_formula_structural       F20Mn4Na8
_chemical_formula_sum              "F20 Mn4 Na8"
_cell_length_a       7.2192
_cell_length_b       4.89782
_cell_length_c       10.1141
_cell_angle_alpha    90
_cell_angle_beta     109.652
_cell_angle_gamma    90

_space_group_name_H-M_alt    "P 1"
_space_group_IT_number       1

loop_
  _space_group_symop_operation_xyz
  'x, y, z'

loop_
  _atom_site_type_symbol
  _atom_site_label
  _atom_site_symmetry_multiplicity
  _atom_site_fract_x
  _atom_site_fract_y
  _atom_site_fract_z
  _atom_site_occupancy
  F   F1        1.0  0.93800  0.84100  0.82100  1.0000
  F   F2        1.0  0.06200  0.15900  0.17900  1.0000
  F   F3        1.0  0.93800  0.65800  0.32100  1.0000
  F   F4        1.0  0.06200  0.34100  0.67900  1.0000
  F   F5        1.0  0.88500  0.31700  0.92000  1.0000
  F   F6        1.0  0.11500  0.81700  0.58000  1.0000
  F   F7        1.0  0.11500  0.68300  0.08000  1.0000
  F   F8        1.0  0.88500  0.18300  0.42000  1.0000
  F   F9        1.0  0.23500  0.14300  0.99200  1.0000
  F   F10       1.0  0.76500  0.64300  0.50800  1.0000
  F   F11       1.0  0.76500  0.85700  0.00827  1.0000
  F   F12       1.0  0.23500  0.35700  0.49200  1.0000
  F   F13       1.0  0.61800  0.19800  0.16500  1.0000
  F   F14       1.0  0.38200  0.69800  0.33500  1.0000
  F   F15       1.0  0.38200  0.80200  0.83500  1.0000
  F   F16       1.0  0.61800  0.30200  0.66500  1.0000
  F   F17       1.0  0.50100  0.31400  0.89400  1.0000
  F   F18       1.0  0.49900  0.81400  0.60600  1.0000
  F   F19       1.0  0.49900  0.68600  0.10600  1.0000
  F   F20       1.0  0.50100  0.18600  0.39400  1.0000
  Mn  Mn1       1.0  0.00000  0.00000  0.00000  1.0000
  Mn  Mn2       1.0  0.00000  0.50000  0.50000  1.0000
  Mn  Mn3       1.0  0.50000  0.00000  0.00000  1.0000
  Mn  Mn4       1.0  0.50000  0.50000  0.50000  1.0000
  Na  Na1       1.0  0.34000  0.37600  0.18800  1.0000
  Na  Na2       1.0  0.66000  0.87600  0.31200  1.0000
  Na  Na3       1.0  0.66000  0.62400  0.81200  1.0000
  Na  Na4       1.0  0.34000  0.12400  0.68800  1.0000
  Na  Na5       1.0  0.17400  0.96500  0.38000  1.0000
  Na  Na6       1.0  0.82600  0.46500  0.12000  1.0000
  Na  Na7       1.0  0.82600  0.03470  0.62000  1.0000
  Na  Na8       1.0  0.17400  0.53500  0.88000  1.0000
