data_image0
_chemical_formula_structural       Ce3Hg3Pd3
_chemical_formula_sum              "Ce3 Hg3 Pd3"
_cell_length_a       7.8495
_cell_length_b       7.8495
_cell_length_c       4.01578
_cell_angle_alpha    90
_cell_angle_beta     90
_cell_angle_gamma    120

_space_group_name_H-M_alt    "P 1"
_space_group_IT_number       1

loop_
  _space_group_symop_operation_xyz
  'x, y, z'

loop_
  _atom_site_type_symbol
  _atom_site_label
  _atom_site_symmetry_multiplicity
  _atom_site_fract_x
  _atom_site_fract_y
  _atom_site_fract_z
  _atom_site_occupancy
  Ce  Ce1       1.0  0.60000  0.00002  0.50000  1.0000
  Ce  Ce2       1.0  0.40000  0.40000  0.50000  1.0000
  Ce  Ce3       1.0  0.00002  0.60000  0.50000  1.0000
  Hg  Hg1       1.0  0.26100  0.00001  0.00000  1.0000
  Hg  Hg2       1.0  0.00001  0.26100  0.00000  1.0000
  Hg  Hg3       1.0  0.73900  0.73900  0.00000  1.0000
  Pd  Pd1       1.0  0.66700  0.33300  0.00000  1.0000
  Pd  Pd2       1.0  0.33300  0.66700  0.00000  1.0000
  Pd  Pd3       1.0  0.00001  0.00001  0.50000  1.0000
