data_image0
_chemical_formula_structural       Cd3Pd3Sm3
_chemical_formula_sum              "Cd3 Pd3 Sm3"
_cell_length_a       7.68182
_cell_length_b       7.68182
_cell_length_c       3.98139
_cell_angle_alpha    90
_cell_angle_beta     90
_cell_angle_gamma    119.999

_space_group_name_H-M_alt    "P 1"
_space_group_IT_number       1

loop_
  _space_group_symop_operation_xyz
  'x, y, z'

loop_
  _atom_site_type_symbol
  _atom_site_label
  _atom_site_symmetry_multiplicity
  _atom_site_fract_x
  _atom_site_fract_y
  _atom_site_fract_z
  _atom_site_occupancy
  Cd  Cd1       1.0  0.25400  0.00001  0.00000  1.0000
  Cd  Cd2       1.0  0.00001  0.25400  0.00000  1.0000
  Cd  Cd3       1.0  0.74600  0.74600  0.00000  1.0000
  Pd  Pd1       1.0  0.66700  0.33300  0.00000  1.0000
  Pd  Pd2       1.0  0.33300  0.66700  0.00000  1.0000
  Pd  Pd3       1.0  0.00001  0.00001  0.50000  1.0000
  Sm  Sm1       1.0  0.59400  0.00001  0.50000  1.0000
  Sm  Sm2       1.0  0.40600  0.40600  0.50000  1.0000
  Sm  Sm3       1.0  0.00001  0.59400  0.50000  1.0000
