data_image0
_chemical_formula_structural       BiF6Na
_chemical_formula_sum              "Bi1 F6 Na1"
_cell_length_a       5.02287
_cell_length_b       5.02287
_cell_length_c       5.56034
_cell_angle_alpha    90
_cell_angle_beta     116.851
_cell_angle_gamma    60

_space_group_name_H-M_alt    "P 1"
_space_group_IT_number       1

loop_
  _space_group_symop_operation_xyz
  'x, y, z'

loop_
  _atom_site_type_symbol
  _atom_site_label
  _atom_site_symmetry_multiplicity
  _atom_site_fract_x
  _atom_site_fract_y
  _atom_site_fract_z
  _atom_site_occupancy
  Bi  Bi1       1.0  0.00000  0.00000  0.00000  1.0000
  F   F1        1.0  0.47500  0.95000  0.24400  1.0000
  F   F2        1.0  0.19300  0.57600  0.24400  1.0000
  F   F3        1.0  0.81900  0.23100  0.24400  1.0000
  F   F4        1.0  0.18100  0.76900  0.75600  1.0000
  F   F5        1.0  0.80700  0.42400  0.75600  1.0000
  F   F6        1.0  0.52500  0.05030  0.75600  1.0000
  Na  Na1       1.0  0.00000  0.50000  0.50000  1.0000
