data_image0
_chemical_formula_structural       Fe2Ge4Tb2
_chemical_formula_sum              "Fe2 Ge4 Tb2"
_cell_length_a       4.19757
_cell_length_b       4.16707
_cell_length_c       8.56008
_cell_angle_alpha    75.9126
_cell_angle_beta     90
_cell_angle_gamma    90

_space_group_name_H-M_alt    "P 1"
_space_group_IT_number       1

loop_
  _space_group_symop_operation_xyz
  'x, y, z'

loop_
  _atom_site_type_symbol
  _atom_site_label
  _atom_site_symmetry_multiplicity
  _atom_site_fract_x
  _atom_site_fract_y
  _atom_site_fract_z
  _atom_site_occupancy
  Fe  Fe1       1.0  0.75000  0.31900  0.36300  1.0000
  Fe  Fe2       1.0  0.25000  0.68100  0.63700  1.0000
  Ge  Ge1       1.0  0.75000  0.45500  0.09090  1.0000
  Ge  Ge2       1.0  0.25000  0.25000  0.50000  1.0000
  Ge  Ge3       1.0  0.75000  0.75000  0.50000  1.0000
  Ge  Ge4       1.0  0.25000  0.54500  0.90900  1.0000
  Tb  Tb1       1.0  0.25000  0.89100  0.21800  1.0000
  Tb  Tb2       1.0  0.75000  0.10900  0.78200  1.0000
