data_image0
_chemical_formula_structural       Te4V5
_chemical_formula_sum              "Te4 V5"
_cell_length_a       3.95174
_cell_length_b       7.0939
_cell_length_c       7.0939
_cell_angle_alpha    94.4494
_cell_angle_beta     73.8275
_cell_angle_gamma    106.173

_space_group_name_H-M_alt    "P 1"
_space_group_IT_number       1

loop_
  _space_group_symop_operation_xyz
  'x, y, z'

loop_
  _atom_site_type_symbol
  _atom_site_label
  _atom_site_symmetry_multiplicity
  _atom_site_fract_x
  _atom_site_fract_y
  _atom_site_fract_z
  _atom_site_occupancy
  Te  Te1       1.0  0.07270  0.35100  0.20500  1.0000
  Te  Te2       1.0  0.72200  0.79500  0.35100  1.0000
  Te  Te3       1.0  0.27800  0.20500  0.64900  1.0000
  Te  Te4       1.0  0.92700  0.64900  0.79500  1.0000
  V   V1        1.0  0.00000  0.00000  0.00000  1.0000
  V   V2        1.0  0.34100  0.75000  0.06870  1.0000
  V   V3        1.0  0.40900  0.06870  0.25000  1.0000
  V   V4        1.0  0.59100  0.93100  0.75000  1.0000
  V   V5        1.0  0.65900  0.25000  0.93100  1.0000
