data_image0
_chemical_formula_structural       As4Na5
_chemical_formula_sum              "As4 Na5"
_cell_length_a       4.60404
_cell_length_b       5.67355
_cell_length_c       9.51235
_cell_angle_alpha    94.7491
_cell_angle_beta     104.005
_cell_angle_gamma    113.938

_space_group_name_H-M_alt    "P 1"
_space_group_IT_number       1

loop_
  _space_group_symop_operation_xyz
  'x, y, z'

loop_
  _atom_site_type_symbol
  _atom_site_label
  _atom_site_symmetry_multiplicity
  _atom_site_fract_x
  _atom_site_fract_y
  _atom_site_fract_z
  _atom_site_occupancy
  As  As1       1.0  0.71500  0.25900  0.17100  1.0000
  As  As2       1.0  0.00146  0.61000  0.39300  1.0000
  As  As3       1.0  0.99900  0.39000  0.60700  1.0000
  As  As4       1.0  0.28500  0.74100  0.82900  1.0000
  Na  Na1       1.0  0.00000  0.00000  0.00000  1.0000
  Na  Na2       1.0  0.41000  0.65500  0.16500  1.0000
  Na  Na3       1.0  0.28600  0.18600  0.38600  1.0000
  Na  Na4       1.0  0.71400  0.81400  0.61400  1.0000
  Na  Na5       1.0  0.59000  0.34500  0.83500  1.0000
