data_image0
_chemical_formula_structural       Ge6Ho2Ni
_chemical_formula_sum              "Ge6 Ho2 Ni1"
_cell_length_a       3.98026
_cell_length_b       4.05234
_cell_length_c       10.8732
_cell_angle_alpha    90
_cell_angle_beta     79.4537
_cell_angle_gamma    90

_space_group_name_H-M_alt    "P 1"
_space_group_IT_number       1

loop_
  _space_group_symop_operation_xyz
  'x, y, z'

loop_
  _atom_site_type_symbol
  _atom_site_label
  _atom_site_symmetry_multiplicity
  _atom_site_fract_x
  _atom_site_fract_y
  _atom_site_fract_z
  _atom_site_occupancy
  Ge  Ge1       1.0  0.89500  0.50000  0.21100  1.0000
  Ge  Ge2       1.0  0.39200  0.00000  0.21700  1.0000
  Ge  Ge3       1.0  0.77700  0.50000  0.44600  1.0000
  Ge  Ge4       1.0  0.27500  0.00000  0.45100  1.0000
  Ge  Ge5       1.0  0.11100  0.50000  0.77800  1.0000
  Ge  Ge6       1.0  0.53600  0.50000  0.92800  1.0000
  Ho  Ho1       1.0  0.99700  0.00000  0.00514  1.0000
  Ho  Ho2       1.0  0.66100  0.00000  0.67800  1.0000
  Ni  Ni1       1.0  0.21800  0.50000  0.56300  1.0000
