data_image0
_chemical_formula_structural       F20Mn6Na2
_chemical_formula_sum              "F20 Mn6 Na2"
_cell_length_a       8.03217
_cell_length_b       7.06583
_cell_length_c       9.49611
_cell_angle_alpha    55.7189
_cell_angle_beta     46.625
_cell_angle_gamma    77.6561

_space_group_name_H-M_alt    "P 1"
_space_group_IT_number       1

loop_
  _space_group_symop_operation_xyz
  'x, y, z'

loop_
  _atom_site_type_symbol
  _atom_site_label
  _atom_site_symmetry_multiplicity
  _atom_site_fract_x
  _atom_site_fract_y
  _atom_site_fract_z
  _atom_site_occupancy
  F   F1        1.0  0.21600  0.97700  0.04820  1.0000
  F   F2        1.0  0.97700  0.21600  0.75900  1.0000
  F   F3        1.0  0.49100  0.20200  0.27300  1.0000
  F   F4        1.0  0.20200  0.49100  0.03420  1.0000
  F   F5        1.0  0.83700  0.18400  0.26100  1.0000
  F   F6        1.0  0.18400  0.83700  0.71700  1.0000
  F   F7        1.0  0.53300  0.98900  0.06620  1.0000
  F   F8        1.0  0.98900  0.53300  0.41300  1.0000
  F   F9        1.0  0.86400  0.05620  0.63700  1.0000
  F   F10       1.0  0.05620  0.86400  0.44200  1.0000
  F   F11       1.0  0.80800  0.61300  0.19400  1.0000
  F   F12       1.0  0.61300  0.80800  0.38600  1.0000
  F   F13       1.0  0.57700  0.32200  0.68300  1.0000
  F   F14       1.0  0.32200  0.57700  0.41800  1.0000
  F   F15       1.0  0.83200  0.56700  0.92800  1.0000
  F   F16       1.0  0.56700  0.83200  0.67300  1.0000
  F   F17       1.0  0.43200  0.63200  0.07380  1.0000
  F   F18       1.0  0.63200  0.43200  0.86200  1.0000
  F   F19       1.0  0.38800  0.17600  0.61800  1.0000
  F   F20       1.0  0.17600  0.38800  0.81800  1.0000
  Mn  Mn1       1.0  0.48900  0.48900  0.51100  1.0000
  Mn  Mn2       1.0  0.73900  0.73900  0.76100  1.0000
  Mn  Mn3       1.0  0.25500  0.76700  0.23900  1.0000
  Mn  Mn4       1.0  0.76700  0.25500  0.73900  1.0000
  Mn  Mn5       1.0  0.51100  0.01110  0.48300  1.0000
  Mn  Mn6       1.0  0.01110  0.51100  0.99500  1.0000
  Na  Na1       1.0  0.98400  0.98400  0.01620  1.0000
  Na  Na2       1.0  0.23400  0.23400  0.26600  1.0000
