data_image0
_chemical_formula_structural       In3Mg3Sm3
_chemical_formula_sum              "In3 Mg3 Sm3"
_cell_length_a       7.64053
_cell_length_b       7.64053
_cell_length_c       4.72292
_cell_angle_alpha    90
_cell_angle_beta     90
_cell_angle_gamma    119.994

_space_group_name_H-M_alt    "P 1"
_space_group_IT_number       1

loop_
  _space_group_symop_operation_xyz
  'x, y, z'

loop_
  _atom_site_type_symbol
  _atom_site_label
  _atom_site_symmetry_multiplicity
  _atom_site_fract_x
  _atom_site_fract_y
  _atom_site_fract_z
  _atom_site_occupancy
  In  In1       1.0  0.00001  0.00001  0.00000  1.0000
  In  In2       1.0  0.66700  0.33300  0.50000  1.0000
  In  In3       1.0  0.33300  0.66700  0.50000  1.0000
  Mg  Mg1       1.0  0.24300  1.00000  0.50000  1.0000
  Mg  Mg2       1.0  0.00000  0.24300  0.50000  1.0000
  Mg  Mg3       1.0  0.75700  0.75700  0.50000  1.0000
  Sm  Sm1       1.0  0.56800  1.00000  0.00000  1.0000
  Sm  Sm2       1.0  0.43200  0.43200  0.00000  1.0000
  Sm  Sm3       1.0  0.00000  0.56800  0.00000  1.0000
