data_image0
_chemical_formula_structural       B8F32H16Li8O8
_chemical_formula_sum              "B8 F32 H16 Li8 O8"
_cell_length_a       4.59046
_cell_length_b       9.75915
_cell_length_c       11.8525
_cell_angle_alpha    90
_cell_angle_beta     90
_cell_angle_gamma    90

_space_group_name_H-M_alt    "P 1"
_space_group_IT_number       1

loop_
  _space_group_symop_operation_xyz
  'x, y, z'

loop_
  _atom_site_type_symbol
  _atom_site_label
  _atom_site_symmetry_multiplicity
  _atom_site_fract_x
  _atom_site_fract_y
  _atom_site_fract_z
  _atom_site_occupancy
  B   B1        1.0  0.55600  0.62000  0.12200  1.0000
  B   B2        1.0  0.55600  0.88000  0.87800  1.0000
  B   B3        1.0  0.94400  0.62000  0.37800  1.0000
  B   B4        1.0  0.94400  0.88000  0.62200  1.0000
  B   B5        1.0  0.44400  0.38000  0.87800  1.0000
  B   B6        1.0  0.44400  0.12000  0.12200  1.0000
  B   B7        1.0  0.05600  0.38000  0.62200  1.0000
  B   B8        1.0  0.05600  0.12000  0.37800  1.0000
  F   F1        1.0  0.49500  0.73900  0.18300  1.0000
  F   F2        1.0  0.50500  0.26100  0.81700  1.0000
  F   F3        1.0  0.00536  0.76100  0.68300  1.0000
  F   F4        1.0  0.00536  0.73900  0.31700  1.0000
  F   F5        1.0  0.49500  0.76100  0.81700  1.0000
  F   F6        1.0  0.50500  0.23900  0.18300  1.0000
  F   F7        1.0  0.99500  0.26100  0.68300  1.0000
  F   F8        1.0  0.99500  0.23900  0.31700  1.0000
  F   F9        1.0  0.85500  0.62100  0.09570  1.0000
  F   F10       1.0  0.85500  0.87900  0.90400  1.0000
  F   F11       1.0  0.64500  0.62100  0.40400  1.0000
  F   F12       1.0  0.64500  0.87900  0.59600  1.0000
  F   F13       1.0  0.14500  0.37900  0.90400  1.0000
  F   F14       1.0  0.14500  0.12100  0.09570  1.0000
  F   F15       1.0  0.35500  0.37900  0.59600  1.0000
  F   F16       1.0  0.35500  0.12100  0.40400  1.0000
  F   F17       1.0  0.49500  0.50600  0.18800  1.0000
  F   F18       1.0  0.49500  0.99400  0.81200  1.0000
  F   F19       1.0  0.00499  0.50600  0.31200  1.0000
  F   F20       1.0  0.00499  0.99400  0.68800  1.0000
  F   F21       1.0  0.50500  0.49400  0.81200  1.0000
  F   F22       1.0  0.50500  0.00648  0.18800  1.0000
  F   F23       1.0  0.99500  0.49400  0.68800  1.0000
  F   F24       1.0  0.99500  0.00648  0.31200  1.0000
  F   F25       1.0  0.39200  0.61800  0.02340  1.0000
  F   F26       1.0  0.39200  0.88200  0.97700  1.0000
  F   F27       1.0  0.10800  0.61800  0.47700  1.0000
  F   F28       1.0  0.10800  0.88200  0.52300  1.0000
  F   F29       1.0  0.60800  0.38200  0.97700  1.0000
  F   F30       1.0  0.60800  0.11800  0.02340  1.0000
  F   F31       1.0  0.89200  0.38200  0.52300  1.0000
  F   F32       1.0  0.89200  0.11800  0.47700  1.0000
  H   H1        1.0  0.78000  0.64000  0.85200  1.0000
  H   H2        1.0  0.78000  0.86000  0.14800  1.0000
  H   H3        1.0  0.72000  0.64000  0.64800  1.0000
  H   H4        1.0  0.72000  0.86000  0.35200  1.0000
  H   H5        1.0  0.22000  0.36000  0.14800  1.0000
  H   H6        1.0  0.22000  0.14000  0.85200  1.0000
  H   H7        1.0  0.28000  0.36000  0.35200  1.0000
  H   H8        1.0  0.28000  0.14000  0.64800  1.0000
  H   H9        1.0  0.99300  0.53100  0.89900  1.0000
  H   H10       1.0  0.99300  0.96900  0.10100  1.0000
  H   H11       1.0  0.50700  0.53100  0.60100  1.0000
  H   H12       1.0  0.50700  0.96900  0.39900  1.0000
  H   H13       1.0  0.00732  0.46900  0.10100  1.0000
  H   H14       1.0  0.00732  0.03150  0.89900  1.0000
  H   H15       1.0  0.49300  0.46900  0.39900  1.0000
  H   H16       1.0  0.49300  0.03150  0.60100  1.0000
  Li  Li1       1.0  0.25000  0.86800  0.25000  1.0000
  Li  Li2       1.0  0.25000  0.63200  0.75000  1.0000
  Li  Li3       1.0  0.75000  0.13200  0.75000  1.0000
  Li  Li4       1.0  0.75000  0.36800  0.25000  1.0000
  Li  Li5       1.0  0.08080  0.75000  0.00000  1.0000
  Li  Li6       1.0  0.41900  0.75000  0.50000  1.0000
  Li  Li7       1.0  0.91900  0.25000  0.00000  1.0000
  Li  Li8       1.0  0.58100  0.25000  0.50000  1.0000
  O   O1        1.0  0.97900  0.62800  0.87900  1.0000
  O   O2        1.0  0.97900  0.87200  0.12100  1.0000
  O   O3        1.0  0.52100  0.62800  0.62100  1.0000
  O   O4        1.0  0.52100  0.87200  0.37900  1.0000
  O   O5        1.0  0.02070  0.37200  0.12100  1.0000
  O   O6        1.0  0.02070  0.12800  0.87900  1.0000
  O   O7        1.0  0.47900  0.37200  0.37900  1.0000
  O   O8        1.0  0.47900  0.12800  0.62100  1.0000
