data_image0
_chemical_formula_structural       B6Lu5Ni19
_chemical_formula_sum              "B6 Lu5 Ni19"
_cell_length_a       4.92681
_cell_length_b       4.92678
_cell_length_c       17.0434
_cell_angle_alpha    90.0023
_cell_angle_beta     89.9984
_cell_angle_gamma    120.007

_space_group_name_H-M_alt    "P 1"
_space_group_IT_number       1

loop_
  _space_group_symop_operation_xyz
  'x, y, z'

loop_
  _atom_site_type_symbol
  _atom_site_label
  _atom_site_symmetry_multiplicity
  _atom_site_fract_x
  _atom_site_fract_y
  _atom_site_fract_z
  _atom_site_occupancy
  B   B1        1.0  0.33300  0.66700  0.50000  1.0000
  B   B2        1.0  0.66700  0.33300  0.50000  1.0000
  B   B3        1.0  0.33300  0.66700  0.09070  1.0000
  B   B4        1.0  0.66700  0.33300  0.09070  1.0000
  B   B5        1.0  0.66700  0.33300  0.90900  1.0000
  B   B6        1.0  0.33300  0.66700  0.90900  1.0000
  Lu  Lu1       1.0  0.00000  0.00000  0.50000  1.0000
  Lu  Lu2       1.0  0.00001  0.00002  0.09620  1.0000
  Lu  Lu3       1.0  0.00000  0.00001  0.90400  1.0000
  Lu  Lu4       1.0  0.00002  0.00001  0.29800  1.0000
  Lu  Lu5       1.0  0.00000  0.00002  0.70200  1.0000
  Ni  Ni1       1.0  0.33300  0.66700  0.29600  1.0000
  Ni  Ni2       1.0  0.66700  0.33300  0.29600  1.0000
  Ni  Ni3       1.0  0.66700  0.33300  0.70400  1.0000
  Ni  Ni4       1.0  0.33300  0.66700  0.70400  1.0000
  Ni  Ni5       1.0  0.50000  0.00003  0.17700  1.0000
  Ni  Ni6       1.0  1.00000  0.50000  0.17700  1.0000
  Ni  Ni7       1.0  0.50000  0.50000  0.17700  1.0000
  Ni  Ni8       1.0  0.50000  1.00000  0.82300  1.0000
  Ni  Ni9       1.0  0.50000  0.50000  0.82300  1.0000
  Ni  Ni10      1.0  0.00011  0.50000  0.82300  1.0000
  Ni  Ni11      1.0  0.50000  0.00000  0.00001  1.0000
  Ni  Ni12      1.0  0.00033  0.50000  0.00001  1.0000
  Ni  Ni13      1.0  0.50000  0.50000  0.00003  1.0000
  Ni  Ni14      1.0  0.50000  0.00000  0.41500  1.0000
  Ni  Ni15      1.0  0.00004  0.50000  0.41500  1.0000
  Ni  Ni16      1.0  0.50000  0.50000  0.41500  1.0000
  Ni  Ni17      1.0  0.50000  0.00000  0.58500  1.0000
  Ni  Ni18      1.0  0.50000  0.50000  0.58500  1.0000
  Ni  Ni19      1.0  0.00010  0.50000  0.58500  1.0000
