data_image0
_chemical_formula_structural       Cs8Li8O48P16
_chemical_formula_sum              "Cs8 Li8 O48 P16"
_cell_length_a       11.0855
_cell_length_b       11.3839
_cell_length_c       13.0797
_cell_angle_alpha    53.3449
_cell_angle_beta     55.4708
_cell_angle_gamma    71.1843

_space_group_name_H-M_alt    "P 1"
_space_group_IT_number       1

loop_
  _space_group_symop_operation_xyz
  'x, y, z'

loop_
  _atom_site_type_symbol
  _atom_site_label
  _atom_site_symmetry_multiplicity
  _atom_site_fract_x
  _atom_site_fract_y
  _atom_site_fract_z
  _atom_site_occupancy
  Cs  Cs1       1.0  0.61800  0.83300  0.62800  1.0000
  Cs  Cs2       1.0  0.83300  0.61800  0.92100  1.0000
  Cs  Cs3       1.0  0.32900  0.62200  0.41700  1.0000
  Cs  Cs4       1.0  0.62200  0.32900  0.63200  1.0000
  Cs  Cs5       1.0  0.12400  0.38300  0.37400  1.0000
  Cs  Cs6       1.0  0.38300  0.12400  0.12000  1.0000
  Cs  Cs7       1.0  0.13000  0.87600  0.86700  1.0000
  Cs  Cs8       1.0  0.87600  0.13000  0.12600  1.0000
  Li  Li1       1.0  0.90800  0.03520  0.63800  1.0000
  Li  Li2       1.0  0.03520  0.90800  0.41900  1.0000
  Li  Li3       1.0  0.61200  0.83100  0.34200  1.0000
  Li  Li4       1.0  0.83100  0.61200  0.21500  1.0000
  Li  Li5       1.0  0.53400  0.35600  0.16500  1.0000
  Li  Li6       1.0  0.35600  0.53400  0.94500  1.0000
  Li  Li7       1.0  0.30500  0.08530  0.89400  1.0000
  Li  Li8       1.0  0.08530  0.30500  0.71600  1.0000
  O   O1        1.0  0.71600  0.24400  0.42300  1.0000
  O   O2        1.0  0.04660  0.70300  0.28800  1.0000
  O   O3        1.0  0.70300  0.04660  0.96300  1.0000
  O   O4        1.0  0.28700  0.96200  0.54700  1.0000
  O   O5        1.0  0.96200  0.28700  0.20300  1.0000
  O   O6        1.0  0.79900  0.51300  0.77800  1.0000
  O   O7        1.0  0.51300  0.79900  0.91100  1.0000
  O   O8        1.0  0.33900  0.47200  0.73700  1.0000
  O   O9        1.0  0.47200  0.33900  0.45100  1.0000
  O   O10       1.0  0.67000  0.33300  0.21900  1.0000
  O   O11       1.0  0.33300  0.67000  0.77700  1.0000
  O   O12       1.0  0.47300  0.03070  0.91700  1.0000
  O   O13       1.0  0.03070  0.47300  0.58000  1.0000
  O   O14       1.0  0.97800  0.71400  0.57600  1.0000
  O   O15       1.0  0.71400  0.97800  0.73200  1.0000
  O   O16       1.0  0.51800  0.67400  0.53600  1.0000
  O   O17       1.0  0.67400  0.51800  0.27200  1.0000
  O   O18       1.0  0.80400  0.82800  0.31000  1.0000
  O   O19       1.0  0.82800  0.80400  0.05840  1.0000
  O   O20       1.0  0.19200  0.94000  0.42200  1.0000
  O   O21       1.0  0.94000  0.19200  0.44600  1.0000
  O   O22       1.0  0.55900  0.84400  0.21900  1.0000
  O   O23       1.0  0.84400  0.55900  0.37800  1.0000
  O   O24       1.0  0.87200  0.03120  0.40600  1.0000
  O   O25       1.0  0.03120  0.87200  0.69100  1.0000
  O   O26       1.0  0.00112  0.55400  0.10100  1.0000
  O   O27       1.0  0.55400  0.00112  0.34400  1.0000
  O   O28       1.0  0.90600  0.14900  0.69600  1.0000
  O   O29       1.0  0.14900  0.90600  0.24900  1.0000
  O   O30       1.0  0.74300  0.30600  0.79300  1.0000
  O   O31       1.0  0.30600  0.74300  0.15800  1.0000
  O   O32       1.0  0.09170  0.45700  0.94400  1.0000
  O   O33       1.0  0.45700  0.09170  0.50700  1.0000
  O   O34       1.0  0.21500  0.37700  0.09370  1.0000
  O   O35       1.0  0.37700  0.21500  0.31400  1.0000
  O   O36       1.0  0.93600  0.15600  0.87300  1.0000
  O   O37       1.0  0.15600  0.93600  0.03500  1.0000
  O   O38       1.0  0.22500  0.22500  0.60100  1.0000
  O   O39       1.0  0.22500  0.22500  0.94900  1.0000
  O   O40       1.0  0.30100  0.64900  0.02510  1.0000
  O   O41       1.0  0.11600  0.40100  0.77700  1.0000
  O   O42       1.0  0.40100  0.11600  0.70600  1.0000
  O   O43       1.0  0.54400  0.47300  0.84900  1.0000
  O   O44       1.0  0.47300  0.54400  0.13400  1.0000
  O   O45       1.0  0.64900  0.30100  0.02530  1.0000
  O   O46       1.0  0.82700  0.63300  0.53400  1.0000
  O   O47       1.0  0.63300  0.82700  0.00577  1.0000
  O   O48       1.0  0.24400  0.71600  0.61700  1.0000
  P   P1        1.0  0.39500  0.67000  0.06110  1.0000
  P   P2        1.0  0.67000  0.39500  0.87400  1.0000
  P   P3        1.0  0.37600  0.18900  0.58000  1.0000
  P   P4        1.0  0.18900  0.37600  0.85500  1.0000
  P   P5        1.0  0.58400  0.92600  0.88100  1.0000
  P   P6        1.0  0.92600  0.58400  0.60800  1.0000
  P   P7        1.0  0.64200  0.36900  0.32400  1.0000
  P   P8        1.0  0.36900  0.64200  0.66600  1.0000
  P   P9        1.0  0.84000  0.16000  0.82500  1.0000
  P   P10       1.0  0.16000  0.84000  0.17500  1.0000
  P   P11       1.0  0.07480  0.42500  0.09040  1.0000
  P   P12       1.0  0.42500  0.07480  0.41000  1.0000
  P   P13       1.0  0.17700  0.87800  0.56600  1.0000
  P   P14       1.0  0.87800  0.17700  0.37800  1.0000
  P   P15       1.0  0.87200  0.68400  0.37200  1.0000
  P   P16       1.0  0.68400  0.87200  0.07260  1.0000
