data_image0
_chemical_formula_structural       Na2O19Ti9
_chemical_formula_sum              "Na2 O19 Ti9"
_cell_length_a       6.33505
_cell_length_b       6.33505
_cell_length_c       15.4699
_cell_angle_alpha    76.1192
_cell_angle_beta     103.881
_cell_angle_gamma    145.3

_space_group_name_H-M_alt    "P 1"
_space_group_IT_number       1

loop_
  _space_group_symop_operation_xyz
  'x, y, z'

loop_
  _atom_site_type_symbol
  _atom_site_label
  _atom_site_symmetry_multiplicity
  _atom_site_fract_x
  _atom_site_fract_y
  _atom_site_fract_z
  _atom_site_occupancy
  Na  Na1       1.0  0.32100  0.67900  0.51200  1.0000
  Na  Na2       1.0  0.67900  0.32100  0.48800  1.0000
  O   O1        1.0  0.05020  0.95000  0.15500  1.0000
  O   O2        1.0  0.95000  0.05020  0.84500  1.0000
  O   O3        1.0  0.72700  0.27300  0.14400  1.0000
  O   O4        1.0  0.27300  0.72700  0.85600  1.0000
  O   O5        1.0  0.62100  0.37900  0.29500  1.0000
  O   O6        1.0  0.37900  0.62100  0.70500  1.0000
  O   O7        1.0  0.84300  0.15700  0.41500  1.0000
  O   O8        1.0  0.15700  0.84300  0.58500  1.0000
  O   O9        1.0  0.92500  0.07490  0.26000  1.0000
  O   O10       1.0  0.07490  0.92500  0.74000  1.0000
  O   O11       1.0  0.10000  0.90000  0.41600  1.0000
  O   O12       1.0  0.90000  0.10000  0.58400  1.0000
  O   O13       1.0  0.24900  0.75100  0.27200  1.0000
  O   O14       1.0  0.75100  0.24900  0.72800  1.0000
  O   O15       1.0  0.35500  0.64500  0.12100  1.0000
  O   O16       1.0  0.64500  0.35500  0.87900  1.0000
  O   O17       1.0  0.12800  0.87200  0.00129  1.0000
  O   O18       1.0  0.87200  0.12800  0.99900  1.0000
  O   O19       1.0  0.50000  0.50000  0.50000  1.0000
  Ti  Ti1       1.0  0.89100  0.10900  0.12100  1.0000
  Ti  Ti2       1.0  0.10900  0.89100  0.87900  1.0000
  Ti  Ti3       1.0  0.78600  0.21400  0.29500  1.0000
  Ti  Ti4       1.0  0.21400  0.78600  0.70500  1.0000
  Ti  Ti5       1.0  1.00000  1.00000  0.50000  1.0000
  Ti  Ti6       1.0  0.18900  0.81100  0.11900  1.0000
  Ti  Ti7       1.0  0.81100  0.18900  0.88100  1.0000
  Ti  Ti8       1.0  0.08530  0.91500  0.29500  1.0000
  Ti  Ti9       1.0  0.91500  0.08530  0.70500  1.0000
