data_image0
_chemical_formula_structural       Ga6In6Se18
_chemical_formula_sum              "Ga6 In6 Se18"
_cell_length_a       7.06403
_cell_length_b       7.06403
_cell_length_c       19.0415
_cell_angle_alpha    90
_cell_angle_beta     90
_cell_angle_gamma    120

_space_group_name_H-M_alt    "P 1"
_space_group_IT_number       1

loop_
  _space_group_symop_operation_xyz
  'x, y, z'

loop_
  _atom_site_type_symbol
  _atom_site_label
  _atom_site_symmetry_multiplicity
  _atom_site_fract_x
  _atom_site_fract_y
  _atom_site_fract_z
  _atom_site_occupancy
  Ga  Ga1       1.0  0.67000  0.68700  0.14300  1.0000
  Ga  Ga2       1.0  0.33000  0.31300  0.64300  1.0000
  Ga  Ga3       1.0  0.31300  0.98300  0.47700  1.0000
  Ga  Ga4       1.0  0.01650  0.33000  0.81000  1.0000
  Ga  Ga5       1.0  0.98300  0.67000  0.31000  1.0000
  Ga  Ga6       1.0  0.68700  0.01650  0.97700  1.0000
  In  In1       1.0  0.34100  0.33100  0.00239  1.0000
  In  In2       1.0  0.65900  0.66900  0.50200  1.0000
  In  In3       1.0  0.66900  0.00976  0.33600  1.0000
  In  In4       1.0  0.99000  0.65900  0.66900  1.0000
  In  In5       1.0  0.00976  0.34100  0.16900  1.0000
  In  In6       1.0  0.33100  0.99000  0.83600  1.0000
  Se  Se1       1.0  0.36900  0.31600  0.15400  1.0000
  Se  Se2       1.0  0.63100  0.68400  0.65400  1.0000
  Se  Se3       1.0  0.68400  0.05330  0.48800  1.0000
  Se  Se4       1.0  0.94700  0.63100  0.82100  1.0000
  Se  Se5       1.0  0.05330  0.36900  0.32100  1.0000
  Se  Se6       1.0  0.31600  0.94700  0.98800  1.0000
  Se  Se7       1.0  0.02150  0.72700  0.18100  1.0000
  Se  Se8       1.0  0.97800  0.27300  0.68100  1.0000
  Se  Se9       1.0  0.27300  0.29500  0.51400  1.0000
  Se  Se10      1.0  0.70500  0.97800  0.84800  1.0000
  Se  Se11      1.0  0.29500  0.02150  0.34800  1.0000
  Se  Se12      1.0  0.72700  0.70500  0.01450  1.0000
  Se  Se13      1.0  0.98200  0.36100  0.01880  1.0000
  Se  Se14      1.0  0.01800  0.63900  0.51900  1.0000
  Se  Se15      1.0  0.63900  0.62100  0.35200  1.0000
  Se  Se16      1.0  0.37900  0.01800  0.68500  1.0000
  Se  Se17      1.0  0.62100  0.98200  0.18500  1.0000
  Se  Se18      1.0  0.36100  0.37900  0.85200  1.0000
