data_image0
_chemical_formula_structural       B2C2Ni2Y2
_chemical_formula_sum              "B2 C2 Ni2 Y2"
_cell_length_a       3.5949
_cell_length_b       3.5949
_cell_length_c       7.52188
_cell_angle_alpha    90
_cell_angle_beta     90
_cell_angle_gamma    90

_space_group_name_H-M_alt    "P 1"
_space_group_IT_number       1

loop_
  _space_group_symop_operation_xyz
  'x, y, z'

loop_
  _atom_site_type_symbol
  _atom_site_label
  _atom_site_symmetry_multiplicity
  _atom_site_fract_x
  _atom_site_fract_y
  _atom_site_fract_z
  _atom_site_occupancy
  B   B1        1.0  0.75000  0.75000  0.35500  1.0000
  B   B2        1.0  0.25000  0.25000  0.64500  1.0000
  C   C1        1.0  0.75000  0.75000  0.15700  1.0000
  C   C2        1.0  0.25000  0.25000  0.84300  1.0000
  Ni  Ni1       1.0  0.75000  0.25000  0.50000  1.0000
  Ni  Ni2       1.0  0.25000  0.75000  0.50000  1.0000
  Y   Y1        1.0  0.25000  0.25000  0.16600  1.0000
  Y   Y2        1.0  0.75000  0.75000  0.83400  1.0000
