data_image0
_chemical_formula_structural       Er2NiSn6
_chemical_formula_sum              "Er2 Ni1 Sn6"
_cell_length_a       11.4825
_cell_length_b       4.35639
_cell_length_c       4.4167
_cell_angle_alpha    90
_cell_angle_beta     90
_cell_angle_gamma    100.935

_space_group_name_H-M_alt    "P 1"
_space_group_IT_number       1

loop_
  _space_group_symop_operation_xyz
  'x, y, z'

loop_
  _atom_site_type_symbol
  _atom_site_label
  _atom_site_symmetry_multiplicity
  _atom_site_fract_x
  _atom_site_fract_y
  _atom_site_fract_z
  _atom_site_occupancy
  Er  Er1       1.0  0.35600  0.17800  0.00000  1.0000
  Er  Er2       1.0  0.64400  0.82200  0.00000  1.0000
  Ni  Ni1       1.0  0.00000  0.50000  0.50000  1.0000
  Sn  Sn1       1.0  0.86000  0.43000  0.00000  1.0000
  Sn  Sn2       1.0  0.14000  0.57000  0.00000  1.0000
  Sn  Sn3       1.0  0.14200  0.07080  0.50000  1.0000
  Sn  Sn4       1.0  0.59200  0.29600  0.50000  1.0000
  Sn  Sn5       1.0  0.40800  0.70400  0.50000  1.0000
  Sn  Sn6       1.0  0.85800  0.92900  0.50000  1.0000
