data_image0
_chemical_formula_structural       C3Ce2Mo2
_chemical_formula_sum              "C3 Ce2 Mo2"
_cell_length_a       3.47472
_cell_length_b       5.9783
_cell_length_c       6.44463
_cell_angle_alpha    115.268
_cell_angle_beta     105.639
_cell_angle_gamma    90

_space_group_name_H-M_alt    "P 1"
_space_group_IT_number       1

loop_
  _space_group_symop_operation_xyz
  'x, y, z'

loop_
  _atom_site_type_symbol
  _atom_site_label
  _atom_site_symmetry_multiplicity
  _atom_site_fract_x
  _atom_site_fract_y
  _atom_site_fract_z
  _atom_site_occupancy
  C   C1        1.0  0.00000  0.00000  0.00000  1.0000
  C   C2        1.0  0.74700  0.27900  0.49400  1.0000
  C   C3        1.0  0.25300  0.72100  0.50600  1.0000
  Ce  Ce1       1.0  0.60600  0.80900  0.21100  1.0000
  Ce  Ce2       1.0  0.39400  0.19100  0.78900  1.0000
  Mo  Mo1       1.0  0.16100  0.32000  0.32200  1.0000
  Mo  Mo2       1.0  0.83900  0.68000  0.67800  1.0000
