data_image0
_chemical_formula_structural       C2Cd2Cl4H14N6O2S2
_chemical_formula_sum              "C2 Cd2 Cl4 H14 N6 O2 S2"
_cell_length_a       8.33813
_cell_length_b       8.33785
_cell_length_c       6.63849
_cell_angle_alpha    74.1405
_cell_angle_beta     105.858
_cell_angle_gamma    62.2631

_space_group_name_H-M_alt    "P 1"
_space_group_IT_number       1

loop_
  _space_group_symop_operation_xyz
  'x, y, z'

loop_
  _atom_site_type_symbol
  _atom_site_label
  _atom_site_symmetry_multiplicity
  _atom_site_fract_x
  _atom_site_fract_y
  _atom_site_fract_z
  _atom_site_occupancy
  C   C1        1.0  0.33100  0.63100  0.16400  1.0000
  C   C2        1.0  0.36900  0.66900  0.66400  1.0000
  Cd  Cd1       1.0  0.03520  0.16400  0.99600  1.0000
  Cd  Cd2       1.0  0.83600  0.96500  0.49600  1.0000
  Cl  Cl1       1.0  0.71400  0.14300  0.04760  1.0000
  Cl  Cl2       1.0  0.85700  0.28600  0.54700  1.0000
  Cl  Cl3       1.0  0.26100  0.29100  0.05340  1.0000
  Cl  Cl4       1.0  0.70900  0.73800  0.55300  1.0000
  H   H1        1.0  0.48700  0.91500  0.63200  1.0000
  H   H2        1.0  0.08540  0.51300  0.13200  1.0000
  H   H3        1.0  0.58800  0.61200  0.31500  1.0000
  H   H4        1.0  0.38800  0.41200  0.81500  1.0000
  H   H5        1.0  0.40900  0.46700  0.27800  1.0000
  H   H6        1.0  0.53300  0.59100  0.77800  1.0000
  H   H7        1.0  0.83100  0.39700  0.20800  1.0000
  H   H8        1.0  0.60300  0.16900  0.70800  1.0000
  H   H9        1.0  0.83600  0.55600  0.01650  1.0000
  H   H10       1.0  0.44400  0.16400  0.51700  1.0000
  H   H11       1.0  0.45400  0.93400  0.13800  1.0000
  H   H12       1.0  0.06630  0.54600  0.63800  1.0000
  H   H13       1.0  0.34500  0.98400  0.77700  1.0000
  H   H14       1.0  0.01650  0.65500  0.27700  1.0000
  N   N1        1.0  0.34000  0.01150  0.60800  1.0000
  N   N2        1.0  0.98900  0.66000  0.10800  1.0000
  N   N3        1.0  0.43600  0.70900  0.18100  1.0000
  N   N4        1.0  0.29100  0.56400  0.68100  1.0000
  N   N5        1.0  0.35500  0.90600  0.04940  1.0000
  N   N6        1.0  0.09370  0.64500  0.54900  1.0000
  O   O1        1.0  0.81200  0.44700  0.04430  1.0000
  O   O2        1.0  0.55300  0.18800  0.54400  1.0000
  S   S1        1.0  0.06920  0.79400  0.98800  1.0000
  S   S2        1.0  0.20600  0.93100  0.48800  1.0000
