data_image0
_chemical_formula_structural       Co6Ho7Sn23
_chemical_formula_sum              "Co6 Ho7 Sn23"
_cell_length_a       9.65939
_cell_length_b       9.65895
_cell_length_c       9.89109
_cell_angle_alpha    89.9934
_cell_angle_beta     90
_cell_angle_gamma    120.001

_space_group_name_H-M_alt    "P 1"
_space_group_IT_number       1

loop_
  _space_group_symop_operation_xyz
  'x, y, z'

loop_
  _atom_site_type_symbol
  _atom_site_label
  _atom_site_symmetry_multiplicity
  _atom_site_fract_x
  _atom_site_fract_y
  _atom_site_fract_z
  _atom_site_occupancy
  Co  Co1       1.0  0.16800  0.83200  0.80200  1.0000
  Co  Co2       1.0  0.16800  0.33700  0.80200  1.0000
  Co  Co3       1.0  0.66300  0.83200  0.80200  1.0000
  Co  Co4       1.0  0.33700  0.16800  0.19800  1.0000
  Co  Co5       1.0  0.83200  0.66300  0.19800  1.0000
  Co  Co6       1.0  0.83200  0.16800  0.19800  1.0000
  Ho  Ho1       1.0  0.00000  0.00000  0.00000  1.0000
  Ho  Ho2       1.0  0.47900  0.52100  0.30700  1.0000
  Ho  Ho3       1.0  0.47900  0.95800  0.30700  1.0000
  Ho  Ho4       1.0  0.04230  0.52100  0.30700  1.0000
  Ho  Ho5       1.0  0.95800  0.47900  0.69300  1.0000
  Ho  Ho6       1.0  0.52100  0.04240  0.69300  1.0000
  Ho  Ho7       1.0  0.52100  0.47900  0.69300  1.0000
  Sn  Sn1       1.0  0.33300  0.66700  0.11500  1.0000
  Sn  Sn2       1.0  0.66700  0.33300  0.88500  1.0000
  Sn  Sn3       1.0  0.00000  0.00000  0.50000  1.0000
  Sn  Sn4       1.0  0.34600  0.00000  0.00000  1.0000
  Sn  Sn5       1.0  0.00000  0.34600  0.00000  1.0000
  Sn  Sn6       1.0  0.65400  0.65400  0.00000  1.0000
  Sn  Sn7       1.0  0.65400  0.00000  0.00000  1.0000
  Sn  Sn8       1.0  0.00001  0.65400  1.00000  1.0000
  Sn  Sn9       1.0  0.34600  0.34600  0.00001  1.0000
  Sn  Sn10      1.0  0.21800  0.78200  0.54600  1.0000
  Sn  Sn11      1.0  0.21800  0.43600  0.54600  1.0000
  Sn  Sn12      1.0  0.56400  0.78200  0.54600  1.0000
  Sn  Sn13      1.0  0.43600  0.21800  0.45400  1.0000
  Sn  Sn14      1.0  0.78200  0.56400  0.45400  1.0000
  Sn  Sn15      1.0  0.78200  0.21800  0.45400  1.0000
  Sn  Sn16      1.0  0.11800  0.88200  0.27300  1.0000
  Sn  Sn17      1.0  0.11800  0.23500  0.27300  1.0000
  Sn  Sn18      1.0  0.76500  0.88200  0.27300  1.0000
  Sn  Sn19      1.0  0.23500  0.11800  0.72700  1.0000
  Sn  Sn20      1.0  0.88200  0.76500  0.72700  1.0000
  Sn  Sn21      1.0  0.88200  0.11800  0.72700  1.0000
  Sn  Sn22      1.0  0.33300  0.66700  0.81700  1.0000
  Sn  Sn23      1.0  0.66700  0.33300  0.18300  1.0000
