data_image0
_chemical_formula_structural       Ge4Nd8O20
_chemical_formula_sum              "Ge4 Nd8 O20"
_cell_length_a       9.9445
_cell_length_b       6.55907
_cell_length_c       6.85082
_cell_angle_alpha    90
_cell_angle_beta     90
_cell_angle_gamma    105.719

_space_group_name_H-M_alt    "P 1"
_space_group_IT_number       1

loop_
  _space_group_symop_operation_xyz
  'x, y, z'

loop_
  _atom_site_type_symbol
  _atom_site_label
  _atom_site_symmetry_multiplicity
  _atom_site_fract_x
  _atom_site_fract_y
  _atom_site_fract_z
  _atom_site_occupancy
  Ge  Ge1       1.0  0.22500  0.20700  0.25300  1.0000
  Ge  Ge2       1.0  0.77500  0.29300  0.75300  1.0000
  Ge  Ge3       1.0  0.77500  0.79300  0.74700  1.0000
  Ge  Ge4       1.0  0.22500  0.70700  0.24700  1.0000
  Nd  Nd1       1.0  0.13500  0.47700  0.82500  1.0000
  Nd  Nd2       1.0  0.86500  0.02270  0.32500  1.0000
  Nd  Nd3       1.0  0.86500  0.52300  0.17500  1.0000
  Nd  Nd4       1.0  0.13500  0.97700  0.67500  1.0000
  Nd  Nd5       1.0  0.54400  0.24900  0.41800  1.0000
  Nd  Nd6       1.0  0.45600  0.25100  0.91800  1.0000
  Nd  Nd7       1.0  0.45600  0.75100  0.58200  1.0000
  Nd  Nd8       1.0  0.54400  0.74900  0.08240  1.0000
  O   O1        1.0  0.93900  0.15600  0.83700  1.0000
  O   O2        1.0  0.06110  0.34400  0.33700  1.0000
  O   O3        1.0  0.06110  0.84400  0.16300  1.0000
  O   O4        1.0  0.93900  0.65600  0.66300  1.0000
  O   O5        1.0  0.37100  0.08020  0.63900  1.0000
  O   O6        1.0  0.62900  0.42000  0.13900  1.0000
  O   O7        1.0  0.62900  0.92000  0.36100  1.0000
  O   O8        1.0  0.37100  0.58000  0.86100  1.0000
  O   O9        1.0  0.38900  0.47100  0.31000  1.0000
  O   O10       1.0  0.61100  0.02880  0.81000  1.0000
  O   O11       1.0  0.61100  0.52900  0.69000  1.0000
  O   O12       1.0  0.38900  0.97100  0.19000  1.0000
  O   O13       1.0  0.05290  0.25800  0.53600  1.0000
  O   O14       1.0  0.94700  0.24200  0.03650  1.0000
  O   O15       1.0  0.94700  0.74200  0.46400  1.0000
  O   O16       1.0  0.05290  0.75800  0.96400  1.0000
  O   O17       1.0  0.21700  0.70400  0.52400  1.0000
  O   O18       1.0  0.78300  0.79600  0.02390  1.0000
  O   O19       1.0  0.78300  0.29600  0.47600  1.0000
  O   O20       1.0  0.21700  0.20400  0.97600  1.0000
