data_image0
_chemical_formula_structural       I8O16
_chemical_formula_sum              "I8 O16"
_cell_length_a       7.58889
_cell_length_b       7.01161
_cell_length_c       8.08738
_cell_angle_alpha    89.9998
_cell_angle_beta     118.808
_cell_angle_gamma    89.9934

_space_group_name_H-M_alt    "P 1"
_space_group_IT_number       1

loop_
  _space_group_symop_operation_xyz
  'x, y, z'

loop_
  _atom_site_type_symbol
  _atom_site_label
  _atom_site_symmetry_multiplicity
  _atom_site_fract_x
  _atom_site_fract_y
  _atom_site_fract_z
  _atom_site_occupancy
  I   I1        1.0  0.66500  0.24500  0.34100  1.0000
  I   I2        1.0  0.33500  0.74500  0.15900  1.0000
  I   I3        1.0  0.33500  0.75500  0.65900  1.0000
  I   I4        1.0  0.66500  0.25500  0.84100  1.0000
  I   I5        1.0  0.13000  0.37800  0.32000  1.0000
  I   I6        1.0  0.87000  0.87800  0.18000  1.0000
  I   I7        1.0  0.87000  0.62200  0.68000  1.0000
  I   I8        1.0  0.13000  0.12200  0.82000  1.0000
  O   O1        1.0  0.94500  0.25000  0.95600  1.0000
  O   O2        1.0  0.05460  0.75000  0.54400  1.0000
  O   O3        1.0  0.05460  0.75000  0.04430  1.0000
  O   O4        1.0  0.94500  0.25000  0.45600  1.0000
  O   O5        1.0  0.65600  0.16100  0.55000  1.0000
  O   O6        1.0  0.34400  0.66100  0.95000  1.0000
  O   O7        1.0  0.34400  0.83900  0.45000  1.0000
  O   O8        1.0  0.65600  0.33900  0.04950  1.0000
  O   O9        1.0  0.30500  0.04610  0.07690  1.0000
  O   O10       1.0  0.69500  0.54600  0.42300  1.0000
  O   O11       1.0  0.69500  0.95400  0.92300  1.0000
  O   O12       1.0  0.30500  0.45400  0.57700  1.0000
  O   O13       1.0  0.31300  0.03910  0.72400  1.0000
  O   O14       1.0  0.68700  0.53900  0.77600  1.0000
  O   O15       1.0  0.68700  0.96100  0.27600  1.0000
  O   O16       1.0  0.31300  0.46100  0.22400  1.0000
