data_image0
_chemical_formula_structural       P4Se12Sn4
_chemical_formula_sum              "P4 Se12 Sn4"
_cell_length_a       6.93424
_cell_length_b       7.73721
_cell_length_c       11.7931
_cell_angle_alpha    90
_cell_angle_beta     124.689
_cell_angle_gamma    90

_space_group_name_H-M_alt    "P 1"
_space_group_IT_number       1

loop_
  _space_group_symop_operation_xyz
  'x, y, z'

loop_
  _atom_site_type_symbol
  _atom_site_label
  _atom_site_symmetry_multiplicity
  _atom_site_fract_x
  _atom_site_fract_y
  _atom_site_fract_z
  _atom_site_occupancy
  P   P1        1.0  0.37300  0.10700  0.43500  1.0000
  P   P2        1.0  0.62700  0.60700  0.06480  1.0000
  P   P3        1.0  0.62700  0.89300  0.56500  1.0000
  P   P4        1.0  0.37300  0.39300  0.93500  1.0000
  Se  Se1       1.0  0.78400  0.70000  0.95600  1.0000
  Se  Se2       1.0  0.21600  0.20000  0.54400  1.0000
  Se  Se3       1.0  0.21600  0.30000  0.04390  1.0000
  Se  Se4       1.0  0.78400  0.80000  0.45600  1.0000
  Se  Se5       1.0  0.39500  0.80900  0.05750  1.0000
  Se  Se6       1.0  0.60500  0.30900  0.44200  1.0000
  Se  Se7       1.0  0.60500  0.19100  0.94200  1.0000
  Se  Se8       1.0  0.39500  0.69100  0.55800  1.0000
  Se  Se9       1.0  0.88400  0.00917  0.76900  1.0000
  Se  Se10      1.0  0.11600  0.50900  0.73100  1.0000
  Se  Se11      1.0  0.11600  0.99100  0.23100  1.0000
  Se  Se12      1.0  0.88400  0.49100  0.26900  1.0000
  Sn  Sn1       1.0  0.71600  0.38300  0.75400  1.0000
  Sn  Sn2       1.0  0.28400  0.88300  0.74600  1.0000
  Sn  Sn3       1.0  0.28400  0.61700  0.24600  1.0000
  Sn  Sn4       1.0  0.71600  0.11700  0.25400  1.0000
