data_image0
_chemical_formula_structural       Ge6Ho2Pd
_chemical_formula_sum              "Ge6 Ho2 Pd1"
_cell_length_a       4.02437
_cell_length_b       4.09124
_cell_length_c       11.1441
_cell_angle_alpha    90
_cell_angle_beta     79.5976
_cell_angle_gamma    90

_space_group_name_H-M_alt    "P 1"
_space_group_IT_number       1

loop_
  _space_group_symop_operation_xyz
  'x, y, z'

loop_
  _atom_site_type_symbol
  _atom_site_label
  _atom_site_symmetry_multiplicity
  _atom_site_fract_x
  _atom_site_fract_y
  _atom_site_fract_z
  _atom_site_occupancy
  Ge  Ge1       1.0  0.90200  0.50000  0.19600  1.0000
  Ge  Ge2       1.0  0.40100  0.00000  0.19900  1.0000
  Ge  Ge3       1.0  0.78800  0.50000  0.42500  1.0000
  Ge  Ge4       1.0  0.28600  0.00000  0.42700  1.0000
  Ge  Ge5       1.0  0.11000  0.50000  0.78100  1.0000
  Ge  Ge6       1.0  0.53700  0.50000  0.92600  1.0000
  Ho  Ho1       1.0  0.00159  0.00000  0.99700  1.0000
  Ho  Ho2       1.0  0.66200  0.00000  0.67500  1.0000
  Pd  Pd1       1.0  0.22000  0.50000  0.55900  1.0000
