data_image0
_chemical_formula_structural       Cu8O
_chemical_formula_sum              "Cu8 O1"
_cell_length_a       4.40184
_cell_length_b       4.40184
_cell_length_c       5.42171
_cell_angle_alpha    90
_cell_angle_beta     90
_cell_angle_gamma    90.9652

_space_group_name_H-M_alt    "P 1"
_space_group_IT_number       1

loop_
  _space_group_symop_operation_xyz
  'x, y, z'

loop_
  _atom_site_type_symbol
  _atom_site_label
  _atom_site_symmetry_multiplicity
  _atom_site_fract_x
  _atom_site_fract_y
  _atom_site_fract_z
  _atom_site_occupancy
  Cu  Cu1       1.0  0.20200  0.42400  0.00000  1.0000
  Cu  Cu2       1.0  0.57600  0.79800  0.00000  1.0000
  Cu  Cu3       1.0  0.66600  0.33400  0.27300  1.0000
  Cu  Cu4       1.0  0.11200  0.88800  0.27300  1.0000
  Cu  Cu5       1.0  0.18000  0.40200  0.50000  1.0000
  Cu  Cu6       1.0  0.59800  0.82000  0.50000  1.0000
  Cu  Cu7       1.0  0.11200  0.88800  0.72700  1.0000
  Cu  Cu8       1.0  0.66600  0.33400  0.72700  1.0000
  O   O1        1.0  0.88900  0.11100  0.00000  1.0000
