data_image0
_chemical_formula_structural       O6Sb2U
_chemical_formula_sum              "O6 Sb2 U1"
_cell_length_a       4.0145
_cell_length_b       5.06106
_cell_length_c       7.02435
_cell_angle_alpha    103.56
_cell_angle_beta     106.604
_cell_angle_gamma    90

_space_group_name_H-M_alt    "P 1"
_space_group_IT_number       1

loop_
  _space_group_symop_operation_xyz
  'x, y, z'

loop_
  _atom_site_type_symbol
  _atom_site_label
  _atom_site_symmetry_multiplicity
  _atom_site_fract_x
  _atom_site_fract_y
  _atom_site_fract_z
  _atom_site_occupancy
  O   O1        1.0  0.06740  0.36900  0.13500  1.0000
  O   O2        1.0  0.58600  0.84000  0.17100  1.0000
  O   O3        1.0  0.69600  0.40000  0.39100  1.0000
  O   O4        1.0  0.30400  0.60000  0.60900  1.0000
  O   O5        1.0  0.41400  0.16000  0.82900  1.0000
  O   O6        1.0  0.93300  0.63100  0.86500  1.0000
  Sb  Sb1       1.0  0.19200  0.23200  0.38500  1.0000
  Sb  Sb2       1.0  0.80800  0.76800  0.61500  1.0000
  U   U1        1.0  0.50000  0.50000  0.00000  1.0000
