data_image0
_chemical_formula_structural       H24Li2Mo4Na6O28
_chemical_formula_sum              "H24 Li2 Mo4 Na6 O28"
_cell_length_a       10.9971
_cell_length_b       10.9971
_cell_length_c       10.9971
_cell_angle_alpha    44.0263
_cell_angle_beta     44.0263
_cell_angle_gamma    44.0263

_space_group_name_H-M_alt    "P 1"
_space_group_IT_number       1

loop_
  _space_group_symop_operation_xyz
  'x, y, z'

loop_
  _atom_site_type_symbol
  _atom_site_label
  _atom_site_symmetry_multiplicity
  _atom_site_fract_x
  _atom_site_fract_y
  _atom_site_fract_z
  _atom_site_occupancy
  H   H1        1.0  0.25400  0.87000  0.58100  1.0000
  H   H2        1.0  0.58100  0.25400  0.87000  1.0000
  H   H3        1.0  0.87000  0.58100  0.25400  1.0000
  H   H4        1.0  0.37000  0.75400  0.08070  1.0000
  H   H5        1.0  0.75400  0.08070  0.37000  1.0000
  H   H6        1.0  0.08070  0.37000  0.75400  1.0000
  H   H7        1.0  0.40300  0.23200  0.96100  1.0000
  H   H8        1.0  0.96100  0.40300  0.23200  1.0000
  H   H9        1.0  0.23200  0.96100  0.40300  1.0000
  H   H10       1.0  0.73200  0.90300  0.46100  1.0000
  H   H11       1.0  0.90300  0.46100  0.73200  1.0000
  H   H12       1.0  0.46100  0.73200  0.90300  1.0000
  H   H13       1.0  0.74800  0.21000  0.58700  1.0000
  H   H14       1.0  0.58700  0.74800  0.21000  1.0000
  H   H15       1.0  0.21000  0.58700  0.74800  1.0000
  H   H16       1.0  0.71000  0.24800  0.08690  1.0000
  H   H17       1.0  0.24800  0.08690  0.71000  1.0000
  H   H18       1.0  0.08690  0.71000  0.24800  1.0000
  H   H19       1.0  0.27700  0.38600  0.77700  1.0000
  H   H20       1.0  0.77700  0.27700  0.38600  1.0000
  H   H21       1.0  0.38600  0.77700  0.27700  1.0000
  H   H22       1.0  0.88600  0.77700  0.27700  1.0000
  H   H23       1.0  0.77700  0.27700  0.88600  1.0000
  H   H24       1.0  0.27700  0.88600  0.77700  1.0000
  Li  Li1       1.0  0.50300  0.50300  0.50300  1.0000
  Li  Li2       1.0  0.00290  0.00290  0.00290  1.0000
  Mo  Mo1       1.0  0.62400  0.62400  0.62400  1.0000
  Mo  Mo2       1.0  0.12400  0.12400  0.12400  1.0000
  Mo  Mo3       1.0  0.87600  0.87600  0.87600  1.0000
  Mo  Mo4       1.0  0.37600  0.37600  0.37600  1.0000
  Na  Na1       1.0  0.22800  0.52100  0.06470  1.0000
  Na  Na2       1.0  0.06470  0.22800  0.52100  1.0000
  Na  Na3       1.0  0.52100  0.06470  0.22800  1.0000
  Na  Na4       1.0  0.02130  0.72800  0.56500  1.0000
  Na  Na5       1.0  0.72800  0.56500  0.02130  1.0000
  Na  Na6       1.0  0.56500  0.02130  0.72800  1.0000
  O   O1        1.0  0.56500  0.56500  0.56500  1.0000
  O   O2        1.0  0.06540  0.06540  0.06540  1.0000
  O   O3        1.0  0.43800  0.65600  0.84300  1.0000
  O   O4        1.0  0.84300  0.43800  0.65600  1.0000
  O   O5        1.0  0.65600  0.84300  0.43800  1.0000
  O   O6        1.0  0.15600  0.93800  0.34300  1.0000
  O   O7        1.0  0.93800  0.34300  0.15600  1.0000
  O   O8        1.0  0.34300  0.15600  0.93800  1.0000
  O   O9        1.0  0.81600  0.81600  0.81600  1.0000
  O   O10       1.0  0.31600  0.31600  0.31600  1.0000
  O   O11       1.0  0.73500  0.82200  0.12700  1.0000
  O   O12       1.0  0.12700  0.73500  0.82200  1.0000
  O   O13       1.0  0.82200  0.12700  0.73500  1.0000
  O   O14       1.0  0.32200  0.23500  0.62700  1.0000
  O   O15       1.0  0.23500  0.62700  0.32200  1.0000
  O   O16       1.0  0.62700  0.32200  0.23500  1.0000
  O   O17       1.0  0.68500  0.24900  0.52400  1.0000
  O   O18       1.0  0.52400  0.68500  0.24900  1.0000
  O   O19       1.0  0.24900  0.52400  0.68500  1.0000
  O   O20       1.0  0.74900  0.18500  0.02390  1.0000
  O   O21       1.0  0.18500  0.02380  0.74900  1.0000
  O   O22       1.0  0.02380  0.74900  0.18500  1.0000
  O   O23       1.0  0.44700  0.27800  0.97100  1.0000
  O   O24       1.0  0.97100  0.44700  0.27800  1.0000
  O   O25       1.0  0.27800  0.97100  0.44700  1.0000
  O   O26       1.0  0.77800  0.94700  0.47100  1.0000
  O   O27       1.0  0.94700  0.47100  0.77800  1.0000
  O   O28       1.0  0.47100  0.77800  0.94700  1.0000
