data_image0
_chemical_formula_structural       Cl2La6O16Si4
_chemical_formula_sum              "Cl2 La6 O16 Si4"
_cell_length_a       7.80309
_cell_length_b       7.80309
_cell_length_c       8.81375
_cell_angle_alpha    81.8056
_cell_angle_beta     98.1944
_cell_angle_gamma    131.19

_space_group_name_H-M_alt    "P 1"
_space_group_IT_number       1

loop_
  _space_group_symop_operation_xyz
  'x, y, z'

loop_
  _atom_site_type_symbol
  _atom_site_label
  _atom_site_symmetry_multiplicity
  _atom_site_fract_x
  _atom_site_fract_y
  _atom_site_fract_z
  _atom_site_occupancy
  Cl  Cl1       1.0  0.47100  0.47100  0.25000  1.0000
  Cl  Cl2       1.0  0.52900  0.52900  0.75000  1.0000
  La  La1       1.0  0.58100  0.21400  0.16700  1.0000
  La  La2       1.0  0.21400  0.58100  0.33300  1.0000
  La  La3       1.0  0.41900  0.78600  0.83300  1.0000
  La  La4       1.0  0.78600  0.41900  0.66700  1.0000
  La  La5       1.0  0.92600  0.92600  0.25000  1.0000
  La  La6       1.0  0.07440  0.07440  0.75000  1.0000
  O   O1        1.0  0.27300  0.96400  0.34700  1.0000
  O   O2        1.0  0.96400  0.27300  0.15300  1.0000
  O   O3        1.0  0.72700  0.03580  0.65300  1.0000
  O   O4        1.0  0.03580  0.72700  0.84700  1.0000
  O   O5        1.0  0.62200  0.90700  0.35200  1.0000
  O   O6        1.0  0.90700  0.62200  0.14800  1.0000
  O   O7        1.0  0.37800  0.09280  0.64800  1.0000
  O   O8        1.0  0.09280  0.37800  0.85200  1.0000
  O   O9        1.0  0.32000  0.79600  0.08320  1.0000
  O   O10       1.0  0.79600  0.32000  0.41700  1.0000
  O   O11       1.0  0.68000  0.20400  0.91700  1.0000
  O   O12       1.0  0.20400  0.68000  0.58300  1.0000
  O   O13       1.0  0.20500  0.05120  0.02920  1.0000
  O   O14       1.0  0.05120  0.20500  0.47100  1.0000
  O   O15       1.0  0.79500  0.94900  0.97100  1.0000
  O   O16       1.0  0.94900  0.79500  0.52900  1.0000
  Si  Si1       1.0  0.78800  0.10400  0.47400  1.0000
  Si  Si2       1.0  0.10400  0.78800  0.02600  1.0000
  Si  Si3       1.0  0.21200  0.89600  0.52600  1.0000
  Si  Si4       1.0  0.89600  0.21200  0.97400  1.0000
