data_image0
_chemical_formula_structural       Cd4Li4O16P4
_chemical_formula_sum              "Cd4 Li4 O16 P4"
_cell_length_a       10.4864
_cell_length_b       4.72867
_cell_length_c       6.31348
_cell_angle_alpha    90
_cell_angle_beta     90
_cell_angle_gamma    90

_space_group_name_H-M_alt    "P 1"
_space_group_IT_number       1

loop_
  _space_group_symop_operation_xyz
  'x, y, z'

loop_
  _atom_site_type_symbol
  _atom_site_label
  _atom_site_symmetry_multiplicity
  _atom_site_fract_x
  _atom_site_fract_y
  _atom_site_fract_z
  _atom_site_occupancy
  Cd  Cd1       1.0  0.21900  0.06140  0.25100  1.0000
  Cd  Cd2       1.0  0.78100  0.93900  0.75100  1.0000
  Cd  Cd3       1.0  0.28100  0.56100  0.75100  1.0000
  Cd  Cd4       1.0  0.71900  0.43900  0.25100  1.0000
  Li  Li1       1.0  0.00000  0.49900  0.00096  1.0000
  Li  Li2       1.0  0.00003  0.50100  0.50100  1.0000
  Li  Li3       1.0  0.50000  0.99900  0.50100  1.0000
  Li  Li4       1.0  0.50000  0.00051  0.00096  1.0000
  O   O1        1.0  0.84800  0.76000  0.44600  1.0000
  O   O2        1.0  0.15200  0.24000  0.94600  1.0000
  O   O3        1.0  0.65200  0.26000  0.94600  1.0000
  O   O4        1.0  0.34800  0.74000  0.44600  1.0000
  O   O5        1.0  0.84800  0.76000  0.05500  1.0000
  O   O6        1.0  0.15200  0.24000  0.55500  1.0000
  O   O7        1.0  0.65200  0.26000  0.55500  1.0000
  O   O8        1.0  0.34800  0.74000  0.05500  1.0000
  O   O9        1.0  0.05290  0.76000  0.25100  1.0000
  O   O10       1.0  0.94700  0.24000  0.75100  1.0000
  O   O11       1.0  0.44700  0.26000  0.75100  1.0000
  O   O12       1.0  0.55300  0.74000  0.25100  1.0000
  O   O13       1.0  0.91700  0.21500  0.25000  1.0000
  O   O14       1.0  0.08260  0.78500  0.75000  1.0000
  O   O15       1.0  0.58300  0.71500  0.75000  1.0000
  O   O16       1.0  0.41700  0.28500  0.25000  1.0000
  P   P1        1.0  0.91700  0.89100  0.25000  1.0000
  P   P2        1.0  0.08260  0.10900  0.75000  1.0000
  P   P3        1.0  0.58300  0.39100  0.75000  1.0000
  P   P4        1.0  0.41700  0.60900  0.25000  1.0000
