data_image0
_chemical_formula_structural       Au2C10Cl8S8
_chemical_formula_sum              "Au2 C10 Cl8 S8"
_cell_length_a       9.00291
_cell_length_b       9.00291
_cell_length_c       8.04433
_cell_angle_alpha    87.2389
_cell_angle_beta     92.7611
_cell_angle_gamma    106.697

_space_group_name_H-M_alt    "P 1"
_space_group_IT_number       1

loop_
  _space_group_symop_operation_xyz
  'x, y, z'

loop_
  _atom_site_type_symbol
  _atom_site_label
  _atom_site_symmetry_multiplicity
  _atom_site_fract_x
  _atom_site_fract_y
  _atom_site_fract_z
  _atom_site_occupancy
  Au  Au1       1.0  0.15000  0.85000  0.11300  1.0000
  Au  Au2       1.0  0.85000  0.15000  0.88700  1.0000
  C   C1        1.0  0.32700  0.06120  0.58600  1.0000
  C   C2        1.0  0.06120  0.32700  0.41400  1.0000
  C   C3        1.0  0.67300  0.93900  0.41400  1.0000
  C   C4        1.0  0.93900  0.67300  0.58600  1.0000
  C   C5        1.0  0.54000  0.33300  0.66500  1.0000
  C   C6        1.0  0.33300  0.54000  0.33500  1.0000
  C   C7        1.0  0.46000  0.66700  0.33500  1.0000
  C   C8        1.0  0.66700  0.46000  0.66500  1.0000
  C   C9        1.0  0.52200  0.47800  0.92300  1.0000
  C   C10       1.0  0.47800  0.52200  0.07670  1.0000
  Cl  Cl1       1.0  0.37200  0.05690  0.12500  1.0000
  Cl  Cl2       1.0  0.05690  0.37200  0.87500  1.0000
  Cl  Cl3       1.0  0.62800  0.94300  0.87500  1.0000
  Cl  Cl4       1.0  0.94300  0.62800  0.12500  1.0000
  Cl  Cl5       1.0  0.25100  0.74900  0.89800  1.0000
  Cl  Cl6       1.0  0.74900  0.25100  0.10200  1.0000
  Cl  Cl7       1.0  0.04460  0.95500  0.31800  1.0000
  Cl  Cl8       1.0  0.95500  0.04460  0.68200  1.0000
  S   S1        1.0  0.48800  0.18400  0.51500  1.0000
  S   S2        1.0  0.18400  0.48800  0.48500  1.0000
  S   S3        1.0  0.51200  0.81600  0.48500  1.0000
  S   S4        1.0  0.81600  0.51200  0.51500  1.0000
  S   S5        1.0  0.41400  0.31300  0.82400  1.0000
  S   S6        1.0  0.31300  0.41400  0.17600  1.0000
  S   S7        1.0  0.58600  0.68700  0.17600  1.0000
  S   S8        1.0  0.68700  0.58600  0.82400  1.0000
