data_image0
_chemical_formula_structural       Cl20K4Sm8
_chemical_formula_sum              "Cl20 K4 Sm8"
_cell_length_a       8.5456
_cell_length_b       7.0915
_cell_length_c       13.0438
_cell_angle_alpha    90
_cell_angle_beta     89.8413
_cell_angle_gamma    90

_space_group_name_H-M_alt    "P 1"
_space_group_IT_number       1

loop_
  _space_group_symop_operation_xyz
  'x, y, z'

loop_
  _atom_site_type_symbol
  _atom_site_label
  _atom_site_symmetry_multiplicity
  _atom_site_fract_x
  _atom_site_fract_y
  _atom_site_fract_z
  _atom_site_occupancy
  Cl  Cl1       1.0  0.24100  0.34700  0.78900  1.0000
  Cl  Cl2       1.0  0.75900  0.84700  0.71100  1.0000
  Cl  Cl3       1.0  0.75900  0.65300  0.21100  1.0000
  Cl  Cl4       1.0  0.24100  0.15300  0.28900  1.0000
  Cl  Cl5       1.0  0.75600  0.36500  0.80600  1.0000
  Cl  Cl6       1.0  0.24400  0.86500  0.69400  1.0000
  Cl  Cl7       1.0  0.24400  0.63500  0.19400  1.0000
  Cl  Cl8       1.0  0.75600  0.13500  0.30600  1.0000
  Cl  Cl9       1.0  0.97500  0.19300  0.62900  1.0000
  Cl  Cl10      1.0  0.02540  0.69300  0.87100  1.0000
  Cl  Cl11      1.0  0.02540  0.80700  0.37100  1.0000
  Cl  Cl12      1.0  0.97500  0.30700  0.12900  1.0000
  Cl  Cl13      1.0  0.20900  0.04750  0.99900  1.0000
  Cl  Cl14      1.0  0.79100  0.54700  0.50100  1.0000
  Cl  Cl15      1.0  0.79100  0.95300  0.00098  1.0000
  Cl  Cl16      1.0  0.20900  0.45300  0.49900  1.0000
  Cl  Cl17      1.0  0.52300  0.18000  0.57300  1.0000
  Cl  Cl18      1.0  0.47700  0.68000  0.92700  1.0000
  Cl  Cl19      1.0  0.47700  0.82000  0.42700  1.0000
  Cl  Cl20      1.0  0.52300  0.32000  0.07330  1.0000
  K   K1        1.0  0.50200  0.06860  0.83900  1.0000
  K   K2        1.0  0.49800  0.56900  0.66100  1.0000
  K   K3        1.0  0.49800  0.93100  0.16100  1.0000
  K   K4        1.0  0.50200  0.43100  0.33900  1.0000
  Sm  Sm1       1.0  0.20800  0.46700  0.00029  1.0000
  Sm  Sm2       1.0  0.79200  0.96700  0.50000  1.0000
  Sm  Sm3       1.0  0.79200  0.53300  0.00000  1.0000
  Sm  Sm4       1.0  0.20800  0.03300  0.50000  1.0000
  Sm  Sm5       1.0  0.99400  0.09870  0.83700  1.0000
  Sm  Sm6       1.0  0.00647  0.59900  0.66300  1.0000
  Sm  Sm7       1.0  0.00648  0.90100  0.16300  1.0000
  Sm  Sm8       1.0  0.99400  0.40100  0.33700  1.0000
