data_image0
_chemical_formula_structural       Cs8F20Fe6
_chemical_formula_sum              "Cs8 F20 Fe6"
_cell_length_a       7.50579
_cell_length_b       7.50579
_cell_length_c       13.1729
_cell_angle_alpha    90
_cell_angle_beta     90
_cell_angle_gamma    46.1904

_space_group_name_H-M_alt    "P 1"
_space_group_IT_number       1

loop_
  _space_group_symop_operation_xyz
  'x, y, z'

loop_
  _atom_site_type_symbol
  _atom_site_label
  _atom_site_symmetry_multiplicity
  _atom_site_fract_x
  _atom_site_fract_y
  _atom_site_fract_z
  _atom_site_occupancy
  Cs  Cs1       1.0  0.26200  0.26200  0.38300  1.0000
  Cs  Cs2       1.0  0.23800  0.23800  0.88300  1.0000
  Cs  Cs3       1.0  0.73800  0.73800  0.61700  1.0000
  Cs  Cs4       1.0  0.76200  0.76200  0.11700  1.0000
  Cs  Cs5       1.0  0.45900  0.45900  0.14000  1.0000
  Cs  Cs6       1.0  0.04120  0.04120  0.64000  1.0000
  Cs  Cs7       1.0  0.54100  0.54100  0.86000  1.0000
  Cs  Cs8       1.0  0.95900  0.95900  0.36000  1.0000
  F   F1        1.0  0.34500  0.86900  0.02970  1.0000
  F   F2        1.0  0.15500  0.63100  0.53000  1.0000
  F   F3        1.0  0.13100  0.65500  0.97000  1.0000
  F   F4        1.0  0.36900  0.84500  0.47000  1.0000
  F   F5        1.0  0.65500  0.13100  0.97000  1.0000
  F   F6        1.0  0.84500  0.36900  0.47000  1.0000
  F   F7        1.0  0.86900  0.34500  0.02970  1.0000
  F   F8        1.0  0.63100  0.15500  0.53000  1.0000
  F   F9        1.0  0.36700  0.86700  0.25000  1.0000
  F   F10       1.0  0.13300  0.63300  0.75000  1.0000
  F   F11       1.0  0.63300  0.13300  0.75000  1.0000
  F   F12       1.0  0.86700  0.36700  0.25000  1.0000
  F   F13       1.0  0.46800  0.46800  0.34900  1.0000
  F   F14       1.0  0.03230  0.03230  0.84900  1.0000
  F   F15       1.0  0.53200  0.53200  0.65100  1.0000
  F   F16       1.0  0.96800  0.96800  0.15100  1.0000
  F   F17       1.0  0.26200  0.26200  0.14200  1.0000
  F   F18       1.0  0.23800  0.23800  0.64200  1.0000
  F   F19       1.0  0.73800  0.73800  0.85800  1.0000
  F   F20       1.0  0.76200  0.76200  0.35800  1.0000
  Fe  Fe1       1.0  0.00000  0.00000  0.00000  1.0000
  Fe  Fe2       1.0  0.50000  0.50000  0.50000  1.0000
  Fe  Fe3       1.0  0.12200  0.12200  0.14600  1.0000
  Fe  Fe4       1.0  0.37800  0.37800  0.64600  1.0000
  Fe  Fe5       1.0  0.87800  0.87800  0.85400  1.0000
  Fe  Fe6       1.0  0.62200  0.62200  0.35400  1.0000
