data_image0
_chemical_formula_structural       Cs16O12Pb4
_chemical_formula_sum              "Cs16 O12 Pb4"
_cell_length_a       11.6673
_cell_length_b       7.16671
_cell_length_c       11.529
_cell_angle_alpha    90
_cell_angle_beta     111.451
_cell_angle_gamma    90

_space_group_name_H-M_alt    "P 1"
_space_group_IT_number       1

loop_
  _space_group_symop_operation_xyz
  'x, y, z'

loop_
  _atom_site_type_symbol
  _atom_site_label
  _atom_site_symmetry_multiplicity
  _atom_site_fract_x
  _atom_site_fract_y
  _atom_site_fract_z
  _atom_site_occupancy
  Cs  Cs1       1.0  0.39400  0.69300  0.16200  1.0000
  Cs  Cs2       1.0  0.60600  0.19300  0.83800  1.0000
  Cs  Cs3       1.0  0.91300  0.96500  0.01260  1.0000
  Cs  Cs4       1.0  0.08670  0.46500  0.98700  1.0000
  Cs  Cs5       1.0  0.57200  0.71600  0.96400  1.0000
  Cs  Cs6       1.0  0.42800  0.21600  0.03640  1.0000
  Cs  Cs7       1.0  0.62200  0.31500  0.36000  1.0000
  Cs  Cs8       1.0  0.37800  0.81500  0.64000  1.0000
  Cs  Cs9       1.0  0.08610  0.11100  0.45800  1.0000
  Cs  Cs10      1.0  0.91400  0.61100  0.54200  1.0000
  Cs  Cs11      1.0  0.85300  0.12100  0.67400  1.0000
  Cs  Cs12      1.0  0.14700  0.62100  0.32600  1.0000
  Cs  Cs13      1.0  0.59400  0.82100  0.47200  1.0000
  Cs  Cs14      1.0  0.40600  0.32100  0.52800  1.0000
  Cs  Cs15      1.0  0.17500  0.88000  0.82600  1.0000
  Cs  Cs16      1.0  0.82500  0.38000  0.17400  1.0000
  O   O1        1.0  0.67300  0.06490  0.10200  1.0000
  O   O2        1.0  0.32700  0.56500  0.89800  1.0000
  O   O3        1.0  0.65600  0.65900  0.24900  1.0000
  O   O4        1.0  0.34400  0.15900  0.75100  1.0000
  O   O5        1.0  0.33200  0.37400  0.25000  1.0000
  O   O6        1.0  0.66800  0.87400  0.75000  1.0000
  O   O7        1.0  0.30700  0.97200  0.39500  1.0000
  O   O8        1.0  0.69300  0.47200  0.60500  1.0000
  O   O9        1.0  0.81100  0.02460  0.42900  1.0000
  O   O10       1.0  0.18900  0.52500  0.57100  1.0000
  O   O11       1.0  0.05490  0.22800  0.20800  1.0000
  O   O12       1.0  0.94500  0.72800  0.79200  1.0000
  Pb  Pb1       1.0  0.23200  0.11000  0.21400  1.0000
  Pb  Pb2       1.0  0.76800  0.61000  0.78600  1.0000
  Pb  Pb3       1.0  0.78900  0.87900  0.25500  1.0000
  Pb  Pb4       1.0  0.21100  0.37900  0.74500  1.0000
