data_image0
_chemical_formula_structural       K24Li8O32Si8
_chemical_formula_sum              "K24 Li8 O32 Si8"
_cell_length_a       11.0476
_cell_length_b       9.4467
_cell_length_c       11.5972
_cell_angle_alpha    90
_cell_angle_beta     121.756
_cell_angle_gamma    90

_space_group_name_H-M_alt    "P 1"
_space_group_IT_number       1

loop_
  _space_group_symop_operation_xyz
  'x, y, z'

loop_
  _atom_site_type_symbol
  _atom_site_label
  _atom_site_symmetry_multiplicity
  _atom_site_fract_x
  _atom_site_fract_y
  _atom_site_fract_z
  _atom_site_occupancy
  K   K1        1.0  0.86100  0.57700  0.39000  1.0000
  K   K2        1.0  0.13900  0.07710  0.11000  1.0000
  K   K3        1.0  0.13900  0.42300  0.61000  1.0000
  K   K4        1.0  0.86100  0.92300  0.89000  1.0000
  K   K5        1.0  0.36400  0.08860  0.94400  1.0000
  K   K6        1.0  0.63600  0.58900  0.55600  1.0000
  K   K7        1.0  0.63600  0.91100  0.05630  1.0000
  K   K8        1.0  0.30000  0.74300  0.84100  1.0000
  K   K9        1.0  0.70000  0.24300  0.65900  1.0000
  K   K10       1.0  0.70000  0.25700  0.15900  1.0000
  K   K11       1.0  0.30000  0.75700  0.34100  1.0000
  K   K12       1.0  0.20000  0.76300  0.04130  1.0000
  K   K13       1.0  0.80000  0.26300  0.45900  1.0000
  K   K14       1.0  0.80000  0.23700  0.95900  1.0000
  K   K15       1.0  0.20000  0.73700  0.54100  1.0000
  K   K16       1.0  0.65300  0.92100  0.53800  1.0000
  K   K17       1.0  0.34700  0.42100  0.96200  1.0000
  K   K18       1.0  0.34700  0.07890  0.46200  1.0000
  K   K19       1.0  0.65300  0.57900  0.03810  1.0000
  K   K20       1.0  0.84600  0.90900  0.41100  1.0000
  K   K21       1.0  0.15400  0.40900  0.08930  1.0000
  K   K22       1.0  0.15400  0.09130  0.58900  1.0000
  K   K23       1.0  0.84600  0.59100  0.91100  1.0000
  K   K24       1.0  0.36400  0.41100  0.44400  1.0000
  Li  Li1       1.0  0.47800  0.37500  0.26400  1.0000
  Li  Li2       1.0  0.52200  0.87500  0.23600  1.0000
  Li  Li3       1.0  0.52200  0.62500  0.73600  1.0000
  Li  Li4       1.0  0.47800  0.12500  0.76400  1.0000
  Li  Li5       1.0  0.01680  0.12700  0.28900  1.0000
  Li  Li6       1.0  0.98300  0.62700  0.21100  1.0000
  Li  Li7       1.0  0.98300  0.87300  0.71100  1.0000
  Li  Li8       1.0  0.01680  0.37300  0.78900  1.0000
  O   O1        1.0  0.39700  0.55900  0.25400  1.0000
  O   O2        1.0  0.60300  0.05880  0.24600  1.0000
  O   O3        1.0  0.60300  0.44100  0.74600  1.0000
  O   O4        1.0  0.39700  0.94100  0.75400  1.0000
  O   O5        1.0  0.60700  0.02310  0.72800  1.0000
  O   O6        1.0  0.39300  0.52300  0.77200  1.0000
  O   O7        1.0  0.39300  0.97700  0.27200  1.0000
  O   O8        1.0  0.60700  0.47700  0.22800  1.0000
  O   O9        1.0  0.13600  0.26800  0.27400  1.0000
  O   O10       1.0  0.86400  0.76800  0.22600  1.0000
  O   O11       1.0  0.86400  0.73200  0.72600  1.0000
  O   O12       1.0  0.13600  0.23200  0.77400  1.0000
  O   O13       1.0  0.63400  0.72700  0.36200  1.0000
  O   O14       1.0  0.36600  0.22700  0.13800  1.0000
  O   O15       1.0  0.36600  0.27300  0.63800  1.0000
  O   O16       1.0  0.63400  0.77300  0.86200  1.0000
  O   O17       1.0  0.46400  0.72000  0.09840  1.0000
  O   O18       1.0  0.53600  0.22000  0.40200  1.0000
  O   O19       1.0  0.53600  0.28000  0.90200  1.0000
  O   O20       1.0  0.46400  0.78000  0.59800  1.0000
  O   O21       1.0  0.88200  0.47600  0.62500  1.0000
  O   O22       1.0  0.11800  0.97600  0.87500  1.0000
  O   O23       1.0  0.11800  0.52400  0.37500  1.0000
  O   O24       1.0  0.88200  0.02430  0.12500  1.0000
  O   O25       1.0  0.96400  0.29000  0.36400  1.0000
  O   O26       1.0  0.03560  0.79000  0.13600  1.0000
  O   O27       1.0  0.03560  0.71000  0.63600  1.0000
  O   O28       1.0  0.96400  0.21000  0.86400  1.0000
  O   O29       1.0  0.90700  0.05800  0.63700  1.0000
  O   O30       1.0  0.09280  0.55800  0.86300  1.0000
  O   O31       1.0  0.09280  0.94200  0.36300  1.0000
  O   O32       1.0  0.90700  0.44200  0.13700  1.0000
  Si  Si1       1.0  0.52700  0.62100  0.23600  1.0000
  Si  Si2       1.0  0.47300  0.12100  0.26400  1.0000
  Si  Si3       1.0  0.47300  0.37900  0.76400  1.0000
  Si  Si4       1.0  0.52700  0.87900  0.73600  1.0000
  Si  Si5       1.0  0.03240  0.38100  0.28900  1.0000
  Si  Si6       1.0  0.96800  0.88100  0.21100  1.0000
  Si  Si7       1.0  0.96800  0.61900  0.71100  1.0000
  Si  Si8       1.0  0.03240  0.11900  0.78900  1.0000
