data_image0
_chemical_formula_structural       Ge3Os3Zr3
_chemical_formula_sum              "Ge3 Os3 Zr3"
_cell_length_a       6.7553
_cell_length_b       6.7553
_cell_length_c       3.83324
_cell_angle_alpha    90
_cell_angle_beta     90
_cell_angle_gamma    119.994

_space_group_name_H-M_alt    "P 1"
_space_group_IT_number       1

loop_
  _space_group_symop_operation_xyz
  'x, y, z'

loop_
  _atom_site_type_symbol
  _atom_site_label
  _atom_site_symmetry_multiplicity
  _atom_site_fract_x
  _atom_site_fract_y
  _atom_site_fract_z
  _atom_site_occupancy
  Ge  Ge1       1.0  0.66700  0.33300  0.00000  1.0000
  Ge  Ge2       1.0  0.33300  0.66700  0.00000  1.0000
  Ge  Ge3       1.0  0.00004  0.00004  0.50000  1.0000
  Os  Os1       1.0  0.24400  0.00001  0.00000  1.0000
  Os  Os2       1.0  0.00001  0.24400  0.00000  1.0000
  Os  Os3       1.0  0.75600  0.75600  0.00000  1.0000
  Zr  Zr1       1.0  0.58400  0.00002  0.50000  1.0000
  Zr  Zr2       1.0  0.41600  0.41600  0.50000  1.0000
  Zr  Zr3       1.0  0.00002  0.58400  0.50000  1.0000
