data_image0
_chemical_formula_structural       K8O16Pb8
_chemical_formula_sum              "K8 O16 Pb8"
_cell_length_a       12.4787
_cell_length_b       7.40172
_cell_length_c       6.95909
_cell_angle_alpha    118.399
_cell_angle_beta     106.174
_cell_angle_gamma    93.5666

_space_group_name_H-M_alt    "P 1"
_space_group_IT_number       1

loop_
  _space_group_symop_operation_xyz
  'x, y, z'

loop_
  _atom_site_type_symbol
  _atom_site_label
  _atom_site_symmetry_multiplicity
  _atom_site_fract_x
  _atom_site_fract_y
  _atom_site_fract_z
  _atom_site_occupancy
  K   K1        1.0  0.23800  0.99500  0.98400  1.0000
  K   K2        1.0  0.76200  0.00466  0.01630  1.0000
  K   K3        1.0  0.51600  0.75900  0.51500  1.0000
  K   K4        1.0  0.48400  0.24100  0.48400  1.0000
  K   K5        1.0  0.73800  0.99600  0.48300  1.0000
  K   K6        1.0  0.26200  0.00427  0.51600  1.0000
  K   K7        1.0  0.01600  0.75900  0.01540  1.0000
  K   K8        1.0  0.98400  0.24200  0.98600  1.0000
  O   O1        1.0  0.65000  0.59900  0.74800  1.0000
  O   O2        1.0  0.35000  0.40100  0.25200  1.0000
  O   O3        1.0  0.86600  0.81400  0.69900  1.0000
  O   O4        1.0  0.13400  0.18600  0.30200  1.0000
  O   O5        1.0  0.86100  0.42900  0.26800  1.0000
  O   O6        1.0  0.13900  0.57200  0.73300  1.0000
  O   O7        1.0  0.63400  0.18600  0.80100  1.0000
  O   O8        1.0  0.36600  0.81400  0.19900  1.0000
  O   O9        1.0  0.63500  0.19400  0.27400  1.0000
  O   O10       1.0  0.36500  0.80500  0.72500  1.0000
  O   O11       1.0  0.86400  0.80500  0.22500  1.0000
  O   O12       1.0  0.13600  0.19500  0.77500  1.0000
  O   O13       1.0  0.63800  0.57100  0.23200  1.0000
  O   O14       1.0  0.36200  0.42800  0.76800  1.0000
  O   O15       1.0  0.15000  0.60000  0.24800  1.0000
  O   O16       1.0  0.85000  0.40100  0.75200  1.0000
  Pb  Pb1       1.0  0.51400  0.24800  0.00759  1.0000
  Pb  Pb2       1.0  0.48600  0.75100  0.99000  1.0000
  Pb  Pb3       1.0  0.24800  0.49800  0.48900  1.0000
  Pb  Pb4       1.0  0.75200  0.50100  0.51100  1.0000
  Pb  Pb5       1.0  0.01470  0.24900  0.50900  1.0000
  Pb  Pb6       1.0  0.98500  0.75200  0.49200  1.0000
  Pb  Pb7       1.0  0.74700  0.49800  0.98900  1.0000
  Pb  Pb8       1.0  0.25300  0.50200  0.01140  1.0000
