data_image0
_chemical_formula_structural       CuGe6Nd2
_chemical_formula_sum              "Cu1 Ge6 Nd2"
_cell_length_a       4.09293
_cell_length_b       4.1765
_cell_length_c       11.1159
_cell_angle_alpha    90
_cell_angle_beta     79.3912
_cell_angle_gamma    90

_space_group_name_H-M_alt    "P 1"
_space_group_IT_number       1

loop_
  _space_group_symop_operation_xyz
  'x, y, z'

loop_
  _atom_site_type_symbol
  _atom_site_label
  _atom_site_symmetry_multiplicity
  _atom_site_fract_x
  _atom_site_fract_y
  _atom_site_fract_z
  _atom_site_occupancy
  Cu  Cu1       1.0  0.22600  0.50000  0.54800  1.0000
  Ge  Ge1       1.0  0.89900  0.50000  0.20200  1.0000
  Ge  Ge2       1.0  0.39800  0.00000  0.20400  1.0000
  Ge  Ge3       1.0  0.78500  0.50000  0.43000  1.0000
  Ge  Ge4       1.0  0.28400  0.00000  0.43200  1.0000
  Ge  Ge5       1.0  0.11800  0.50000  0.76500  1.0000
  Ge  Ge6       1.0  0.54800  0.50000  0.90400  1.0000
  Nd  Nd1       1.0  0.00344  0.00000  0.99300  1.0000
  Nd  Nd2       1.0  0.67000  0.00000  0.66100  1.0000
