data_image0
_chemical_formula_structural       Ca6Ge2O
_chemical_formula_sum              "Ca6 Ge2 O1"
_cell_length_a       6.79229
_cell_length_b       6.79229
_cell_length_c       6.79229
_cell_angle_alpha    120
_cell_angle_beta     90
_cell_angle_gamma    120

_space_group_name_H-M_alt    "P 1"
_space_group_IT_number       1

loop_
  _space_group_symop_operation_xyz
  'x, y, z'

loop_
  _atom_site_type_symbol
  _atom_site_label
  _atom_site_symmetry_multiplicity
  _atom_site_fract_x
  _atom_site_fract_y
  _atom_site_fract_z
  _atom_site_occupancy
  Ca  Ca1       1.0  0.50400  0.00758  0.00379  1.0000
  Ca  Ca2       1.0  0.50400  0.50000  0.00379  1.0000
  Ca  Ca3       1.0  0.99600  0.50000  0.00379  1.0000
  Ca  Ca4       1.0  0.50400  0.50000  0.49600  1.0000
  Ca  Ca5       1.0  0.99600  0.50000  0.49600  1.0000
  Ca  Ca6       1.0  0.99600  0.99200  0.49600  1.0000
  Ge  Ge1       1.0  0.00000  0.00000  0.00000  1.0000
  Ge  Ge2       1.0  0.50000  0.00000  0.50000  1.0000
  O   O1        1.0  0.75000  0.50000  0.25000  1.0000
