data_image0
_chemical_formula_structural       K11LiMn4O16
_chemical_formula_sum              "K11 Li1 Mn4 O16"
_cell_length_a       10.0803
_cell_length_b       10.0803
_cell_length_c       10.0803
_cell_angle_alpha    135.401
_cell_angle_beta     135.401
_cell_angle_gamma    64.9075

_space_group_name_H-M_alt    "P 1"
_space_group_IT_number       1

loop_
  _space_group_symop_operation_xyz
  'x, y, z'

loop_
  _atom_site_type_symbol
  _atom_site_label
  _atom_site_symmetry_multiplicity
  _atom_site_fract_x
  _atom_site_fract_y
  _atom_site_fract_z
  _atom_site_occupancy
  K   K1        1.0  0.94100  0.94100  0.62900  1.0000
  K   K2        1.0  0.31200  0.31200  0.37100  1.0000
  K   K3        1.0  0.05920  0.68800  0.00000  1.0000
  K   K4        1.0  0.68800  0.05920  0.00000  1.0000
  K   K5        1.0  0.00000  0.50000  0.50000  1.0000
  K   K6        1.0  0.50000  0.00000  0.50000  1.0000
  K   K7        1.0  0.75000  0.25000  0.50000  1.0000
  K   K8        1.0  0.25000  0.75000  0.50000  1.0000
  K   K9        1.0  0.50000  0.50000  0.00000  1.0000
  K   K10       1.0  0.71400  0.71400  0.00000  1.0000
  K   K11       1.0  0.28600  0.28600  0.00000  1.0000
  Li  Li1       1.0  0.00000  0.00000  0.00000  1.0000
  Mn  Mn1       1.0  0.38700  0.86000  0.00000  1.0000
  Mn  Mn2       1.0  0.86000  0.38700  0.00000  1.0000
  Mn  Mn3       1.0  0.61300  0.61300  0.47300  1.0000
  Mn  Mn4       1.0  0.14000  0.14000  0.52700  1.0000
  O   O1        1.0  0.59600  0.88900  0.25700  1.0000
  O   O2        1.0  0.63200  0.33800  0.74300  1.0000
  O   O3        1.0  0.36800  0.11100  0.70700  1.0000
  O   O4        1.0  0.40400  0.66200  0.29300  1.0000
  O   O5        1.0  0.88900  0.59600  0.25700  1.0000
  O   O6        1.0  0.33800  0.63200  0.74300  1.0000
  O   O7        1.0  0.11100  0.36800  0.70700  1.0000
  O   O8        1.0  0.66200  0.40400  0.29300  1.0000
  O   O9        1.0  0.20300  0.90500  0.00000  1.0000
  O   O10       1.0  0.90500  0.20300  0.00000  1.0000
  O   O11       1.0  0.79700  0.79700  0.70200  1.0000
  O   O12       1.0  0.09470  0.09470  0.29800  1.0000
  O   O13       1.0  0.98900  0.98900  0.41100  1.0000
  O   O14       1.0  0.57700  0.57700  0.58900  1.0000
  O   O15       1.0  0.01150  0.42300  0.00000  1.0000
  O   O16       1.0  0.42300  0.01150  0.00000  1.0000
