data_image0
_chemical_formula_structural       I4In12Te12
_chemical_formula_sum              "I4 In12 Te12"
_cell_length_a       11.573
_cell_length_b       4.2985
_cell_length_c       19.4958
_cell_angle_alpha    90
_cell_angle_beta     90
_cell_angle_gamma    90

_space_group_name_H-M_alt    "P 1"
_space_group_IT_number       1

loop_
  _space_group_symop_operation_xyz
  'x, y, z'

loop_
  _atom_site_type_symbol
  _atom_site_label
  _atom_site_symmetry_multiplicity
  _atom_site_fract_x
  _atom_site_fract_y
  _atom_site_fract_z
  _atom_site_occupancy
  I   I1        1.0  0.92200  0.25000  0.67500  1.0000
  I   I2        1.0  0.57800  0.75000  0.17500  1.0000
  I   I3        1.0  0.42200  0.25000  0.82500  1.0000
  I   I4        1.0  0.07770  0.75000  0.32500  1.0000
  In  In1       1.0  0.15000  0.25000  0.63200  1.0000
  In  In2       1.0  0.35000  0.75000  0.13200  1.0000
  In  In3       1.0  0.65000  0.25000  0.86800  1.0000
  In  In4       1.0  0.85000  0.75000  0.36800  1.0000
  In  In5       1.0  0.31500  0.75000  0.48200  1.0000
  In  In6       1.0  0.18500  0.25000  0.98200  1.0000
  In  In7       1.0  0.81500  0.75000  0.01760  1.0000
  In  In8       1.0  0.68500  0.25000  0.51800  1.0000
  In  In9       1.0  0.44200  0.75000  0.60600  1.0000
  In  In10      1.0  0.05800  0.25000  0.10600  1.0000
  In  In11      1.0  0.94200  0.75000  0.89400  1.0000
  In  In12      1.0  0.55800  0.25000  0.39400  1.0000
  Te  Te1       1.0  0.25400  0.75000  0.70300  1.0000
  Te  Te2       1.0  0.24600  0.25000  0.20300  1.0000
  Te  Te3       1.0  0.75400  0.75000  0.79700  1.0000
  Te  Te4       1.0  0.74600  0.25000  0.29700  1.0000
  Te  Te5       1.0  0.58600  0.25000  0.65100  1.0000
  Te  Te6       1.0  0.91400  0.75000  0.15100  1.0000
  Te  Te7       1.0  0.08650  0.25000  0.84900  1.0000
  Te  Te8       1.0  0.41400  0.75000  0.34900  1.0000
  Te  Te9       1.0  0.14900  0.25000  0.48700  1.0000
  Te  Te10      1.0  0.35100  0.75000  0.98700  1.0000
  Te  Te11      1.0  0.64900  0.25000  0.01280  1.0000
  Te  Te12      1.0  0.85100  0.75000  0.51300  1.0000
