data_image0
_chemical_formula_structural       F6PdPt
_chemical_formula_sum              "F6 Pd1 Pt1"
_cell_length_a       4.87886
_cell_length_b       4.8789
_cell_length_c       5.43619
_cell_angle_alpha    63.3295
_cell_angle_beta     116.671
_cell_angle_gamma    120.004

_space_group_name_H-M_alt    "P 1"
_space_group_IT_number       1

loop_
  _space_group_symop_operation_xyz
  'x, y, z'

loop_
  _atom_site_type_symbol
  _atom_site_label
  _atom_site_symmetry_multiplicity
  _atom_site_fract_x
  _atom_site_fract_y
  _atom_site_fract_z
  _atom_site_occupancy
  F   F1        1.0  0.07400  0.54600  0.25800  1.0000
  F   F2        1.0  0.73100  0.92600  0.25800  1.0000
  F   F3        1.0  0.45400  0.27000  0.25800  1.0000
  F   F4        1.0  0.54600  0.73000  0.74200  1.0000
  F   F5        1.0  0.26900  0.07400  0.74200  1.0000
  F   F6        1.0  0.92600  0.45400  0.74200  1.0000
  Pd  Pd1       1.0  0.00000  0.00000  0.00000  1.0000
  Pt  Pt1       1.0  0.50000  0.50000  0.50000  1.0000
