data_image0
_chemical_formula_structural       B36H44N16
_chemical_formula_sum              "B36 H44 N16"
_cell_length_a       7.82709
_cell_length_b       5.62951
_cell_length_c       18.4822
_cell_angle_alpha    90
_cell_angle_beta     96.715
_cell_angle_gamma    90

_space_group_name_H-M_alt    "P 1"
_space_group_IT_number       1

loop_
  _space_group_symop_operation_xyz
  'x, y, z'

loop_
  _atom_site_type_symbol
  _atom_site_label
  _atom_site_symmetry_multiplicity
  _atom_site_fract_x
  _atom_site_fract_y
  _atom_site_fract_z
  _atom_site_occupancy
  B   B1        1.0  0.06750  0.44900  0.37800  1.0000
  B   B2        1.0  0.93300  0.94900  0.12200  1.0000
  B   B3        1.0  0.93300  0.55100  0.62200  1.0000
  B   B4        1.0  0.06750  0.05090  0.87800  1.0000
  B   B5        1.0  0.29300  0.10900  0.31700  1.0000
  B   B6        1.0  0.70700  0.60900  0.18300  1.0000
  B   B7        1.0  0.70700  0.89100  0.68300  1.0000
  B   B8        1.0  0.29300  0.39100  0.81700  1.0000
  B   B9        1.0  0.29100  0.10000  0.45800  1.0000
  B   B10       1.0  0.70900  0.60000  0.04250  1.0000
  B   B11       1.0  0.70900  0.90000  0.54200  1.0000
  B   B12       1.0  0.29100  0.40000  0.95800  1.0000
  B   B13       1.0  0.07490  0.25100  0.45300  1.0000
  B   B14       1.0  0.92500  0.75100  0.04670  1.0000
  B   B15       1.0  0.92500  0.74900  0.54700  1.0000
  B   B16       1.0  0.07490  0.24900  0.95300  1.0000
  B   B17       1.0  0.26300  0.40700  0.33900  1.0000
  B   B18       1.0  0.73700  0.90700  0.16100  1.0000
  B   B19       1.0  0.73700  0.59300  0.66100  1.0000
  B   B20       1.0  0.26300  0.09310  0.83900  1.0000
  B   B21       1.0  0.41700  0.24600  0.39600  1.0000
  B   B22       1.0  0.58300  0.74600  0.10400  1.0000
  B   B23       1.0  0.58300  0.75400  0.60400  1.0000
  B   B24       1.0  0.41700  0.25400  0.89600  1.0000
  B   B25       1.0  0.26400  0.40200  0.43700  1.0000
  B   B26       1.0  0.73600  0.90200  0.06260  1.0000
  B   B27       1.0  0.73600  0.59800  0.56300  1.0000
  B   B28       1.0  0.26400  0.09830  0.93700  1.0000
  B   B29       1.0  0.94600  0.19400  0.37200  1.0000
  B   B30       1.0  0.05430  0.69400  0.12800  1.0000
  B   B31       1.0  0.05430  0.80500  0.62800  1.0000
  B   B32       1.0  0.94600  0.30600  0.87200  1.0000
  B   B33       1.0  0.07370  0.25800  0.30400  1.0000
  B   B34       1.0  0.92600  0.75800  0.19600  1.0000
  B   B35       1.0  0.92600  0.74200  0.69600  1.0000
  B   B36       1.0  0.07370  0.24200  0.80400  1.0000
  H   H1        1.0  0.79600  0.15200  0.36400  1.0000
  H   H2        1.0  0.20400  0.65200  0.13600  1.0000
  H   H3        1.0  0.20400  0.84800  0.63600  1.0000
  H   H4        1.0  0.79600  0.34800  0.86400  1.0000
  H   H5        1.0  0.01340  0.28000  0.24200  1.0000
  H   H6        1.0  0.98700  0.78000  0.25800  1.0000
  H   H7        1.0  0.98700  0.72000  0.75800  1.0000
  H   H8        1.0  0.01340  0.22000  0.74200  1.0000
  H   H9        1.0  0.34300  0.00951  0.51400  1.0000
  H   H10       1.0  0.65700  0.51000  0.98600  1.0000
  H   H11       1.0  0.65700  0.99000  0.48600  1.0000
  H   H12       1.0  0.34300  0.49000  0.01360  1.0000
  H   H13       1.0  0.01290  0.27900  0.50800  1.0000
  H   H14       1.0  0.98700  0.77900  0.99200  1.0000
  H   H15       1.0  0.98700  0.72100  0.49200  1.0000
  H   H16       1.0  0.01290  0.22100  0.00815  1.0000
  H   H17       1.0  0.02200  0.04780  0.42600  1.0000
  H   H18       1.0  0.97800  0.54800  0.07360  1.0000
  H   H19       1.0  0.97800  0.95200  0.57400  1.0000
  H   H20       1.0  0.02200  0.45200  0.92600  1.0000
  H   H21       1.0  0.30500  0.55900  0.30000  1.0000
  H   H22       1.0  0.69500  0.05920  0.20000  1.0000
  H   H23       1.0  0.69500  0.44100  0.70000  1.0000
  H   H24       1.0  0.30500  0.94100  0.80000  1.0000
  H   H25       1.0  0.02020  0.05240  0.32400  1.0000
  H   H26       1.0  0.98000  0.55200  0.17600  1.0000
  H   H27       1.0  0.98000  0.94800  0.67600  1.0000
  H   H28       1.0  0.02020  0.44800  0.82400  1.0000
  H   H29       1.0  0.99900  0.63900  0.37500  1.0000
  H   H30       1.0  0.00056  0.13900  0.12500  1.0000
  H   H31       1.0  0.00056  0.36100  0.62500  1.0000
  H   H32       1.0  0.99900  0.86100  0.87500  1.0000
  H   H33       1.0  0.40400  0.83600  0.39100  1.0000
  H   H34       1.0  0.59600  0.33600  0.10900  1.0000
  H   H35       1.0  0.59600  0.16400  0.60900  1.0000
  H   H36       1.0  0.40400  0.66400  0.89100  1.0000
  H   H37       1.0  0.56800  0.26900  0.40300  1.0000
  H   H38       1.0  0.43200  0.76900  0.09740  1.0000
  H   H39       1.0  0.43200  0.73100  0.59700  1.0000
  H   H40       1.0  0.56800  0.23100  0.90300  1.0000
  H   H41       1.0  0.30800  0.55500  0.48000  1.0000
  H   H42       1.0  0.69200  0.05470  0.01980  1.0000
  H   H43       1.0  0.69200  0.44500  0.52000  1.0000
  H   H44       1.0  0.30800  0.94500  0.98000  1.0000
  N   N1        1.0  0.32700  0.98400  0.38800  1.0000
  N   N2        1.0  0.67300  0.48400  0.11200  1.0000
  N   N3        1.0  0.67300  0.01630  0.61200  1.0000
  N   N4        1.0  0.32700  0.51600  0.88800  1.0000
  N   N5        1.0  0.35900  0.00956  0.25300  1.0000
  N   N6        1.0  0.64100  0.51000  0.24700  1.0000
  N   N7        1.0  0.64100  0.99000  0.74700  1.0000
  N   N8        1.0  0.35900  0.49000  0.75300  1.0000
  N   N9        1.0  0.35100  0.11900  0.19500  1.0000
  N   N10       1.0  0.64900  0.61900  0.30500  1.0000
  N   N11       1.0  0.64900  0.88100  0.80500  1.0000
  N   N12       1.0  0.35100  0.38100  0.69500  1.0000
  N   N13       1.0  0.35000  0.20200  0.13800  1.0000
  N   N14       1.0  0.65000  0.70200  0.36200  1.0000
  N   N15       1.0  0.65000  0.79800  0.86200  1.0000
  N   N16       1.0  0.35000  0.29800  0.63800  1.0000
