data_image0
_chemical_formula_structural       Fe2Se4Tl2
_chemical_formula_sum              "Fe2 Se4 Tl2"
_cell_length_a       5.4529
_cell_length_b       6.70404
_cell_length_c       7.05328
_cell_angle_alpha    115.744
_cell_angle_beta     90
_cell_angle_gamma    113.997

_space_group_name_H-M_alt    "P 1"
_space_group_IT_number       1

loop_
  _space_group_symop_operation_xyz
  'x, y, z'

loop_
  _atom_site_type_symbol
  _atom_site_label
  _atom_site_symmetry_multiplicity
  _atom_site_fract_x
  _atom_site_fract_y
  _atom_site_fract_z
  _atom_site_occupancy
  Fe  Fe1       1.0  0.24900  0.00000  0.00000  1.0000
  Fe  Fe2       1.0  0.75100  0.00000  0.00000  1.0000
  Se  Se1       1.0  0.17200  0.34500  0.08970  1.0000
  Se  Se2       1.0  0.53500  0.06910  0.28800  1.0000
  Se  Se3       1.0  0.46500  0.93100  0.71200  1.0000
  Se  Se4       1.0  0.82800  0.65500  0.91000  1.0000
  Tl  Tl1       1.0  0.82300  0.64500  0.36700  1.0000
  Tl  Tl2       1.0  0.17700  0.35500  0.63300  1.0000
