data_image0
_chemical_formula_structural       Mn8Nd4O20
_chemical_formula_sum              "Mn8 Nd4 O20"
_cell_length_a       7.31396
_cell_length_b       8.6075
_cell_length_c       5.76275
_cell_angle_alpha    90
_cell_angle_beta     90
_cell_angle_gamma    90

_space_group_name_H-M_alt    "P 1"
_space_group_IT_number       1

loop_
  _space_group_symop_operation_xyz
  'x, y, z'

loop_
  _atom_site_type_symbol
  _atom_site_label
  _atom_site_symmetry_multiplicity
  _atom_site_fract_x
  _atom_site_fract_y
  _atom_site_fract_z
  _atom_site_occupancy
  Mn  Mn1       1.0  0.00000  0.50000  0.25600  1.0000
  Mn  Mn2       1.0  0.50000  0.00000  0.74400  1.0000
  Mn  Mn3       1.0  0.00000  0.50000  0.74400  1.0000
  Mn  Mn4       1.0  0.50000  0.00000  0.25600  1.0000
  Mn  Mn5       1.0  0.41200  0.34900  0.50000  1.0000
  Mn  Mn6       1.0  0.58800  0.65100  0.50000  1.0000
  Mn  Mn7       1.0  0.91200  0.15100  0.50000  1.0000
  Mn  Mn8       1.0  0.08780  0.84900  0.50000  1.0000
  Nd  Nd1       1.0  0.13400  0.17200  0.00000  1.0000
  Nd  Nd2       1.0  0.86600  0.82800  0.00000  1.0000
  Nd  Nd3       1.0  0.63400  0.32800  0.00000  1.0000
  Nd  Nd4       1.0  0.36600  0.67200  0.00000  1.0000
  O   O1        1.0  0.39500  0.20500  0.24800  1.0000
  O   O2        1.0  0.60500  0.79500  0.24800  1.0000
  O   O3        1.0  0.89500  0.29500  0.75200  1.0000
  O   O4        1.0  0.10500  0.70500  0.75200  1.0000
  O   O5        1.0  0.60500  0.79500  0.75200  1.0000
  O   O6        1.0  0.39500  0.20500  0.75200  1.0000
  O   O7        1.0  0.10500  0.70500  0.24800  1.0000
  O   O8        1.0  0.89500  0.29500  0.24800  1.0000
  O   O9        1.0  0.15300  0.43200  0.50000  1.0000
  O   O10       1.0  0.84700  0.56800  0.50000  1.0000
  O   O11       1.0  0.65300  0.06820  0.50000  1.0000
  O   O12       1.0  0.34700  0.93200  0.50000  1.0000
  O   O13       1.0  0.16300  0.44600  0.00000  1.0000
  O   O14       1.0  0.83700  0.55400  0.00000  1.0000
  O   O15       1.0  0.66300  0.05400  0.00000  1.0000
  O   O16       1.0  0.33700  0.94600  0.00000  1.0000
  O   O17       1.0  0.00000  0.00000  0.27800  1.0000
  O   O18       1.0  0.50000  0.50000  0.72200  1.0000
  O   O19       1.0  0.00000  0.00000  0.72200  1.0000
  O   O20       1.0  0.50000  0.50000  0.27800  1.0000
