data_image0
_chemical_formula_structural       K12O14Ti4
_chemical_formula_sum              "K12 O14 Ti4"
_cell_length_a       6.43195
_cell_length_b       9.12884
_cell_length_c       10.931
_cell_angle_alpha    90
_cell_angle_beta     123.123
_cell_angle_gamma    90

_space_group_name_H-M_alt    "P 1"
_space_group_IT_number       1

loop_
  _space_group_symop_operation_xyz
  'x, y, z'

loop_
  _atom_site_type_symbol
  _atom_site_label
  _atom_site_symmetry_multiplicity
  _atom_site_fract_x
  _atom_site_fract_y
  _atom_site_fract_z
  _atom_site_occupancy
  K   K1        1.0  0.19700  0.98200  0.43900  1.0000
  K   K2        1.0  0.19700  0.51800  0.93900  1.0000
  K   K3        1.0  0.80300  0.01760  0.56100  1.0000
  K   K4        1.0  0.80300  0.48200  0.06140  1.0000
  K   K5        1.0  0.05730  0.34700  0.43700  1.0000
  K   K6        1.0  0.94300  0.84700  0.06280  1.0000
  K   K7        1.0  0.94300  0.65300  0.56300  1.0000
  K   K8        1.0  0.05730  0.15300  0.93700  1.0000
  K   K9        1.0  0.41500  0.29700  0.28700  1.0000
  K   K10       1.0  0.58500  0.79700  0.21300  1.0000
  K   K11       1.0  0.58500  0.70300  0.71300  1.0000
  K   K12       1.0  0.41500  0.20300  0.78700  1.0000
  O   O1        1.0  0.50000  0.50000  0.50000  1.0000
  O   O2        1.0  0.50000  0.00000  0.00000  1.0000
  O   O3        1.0  0.99000  0.33600  0.65400  1.0000
  O   O4        1.0  0.00965  0.83600  0.84600  1.0000
  O   O5        1.0  0.00965  0.66400  0.34600  1.0000
  O   O6        1.0  0.99000  0.16400  0.15400  1.0000
  O   O7        1.0  0.50200  0.19300  0.57600  1.0000
  O   O8        1.0  0.49800  0.69300  0.92400  1.0000
  O   O9        1.0  0.49800  0.80700  0.42400  1.0000
  O   O10       1.0  0.50200  0.30700  0.07560  1.0000
  O   O11       1.0  0.75200  0.40200  0.81800  1.0000
  O   O12       1.0  0.24800  0.90200  0.68200  1.0000
  O   O13       1.0  0.24800  0.59800  0.18200  1.0000
  O   O14       1.0  0.75200  0.09750  0.31800  1.0000
  Ti  Ti1       1.0  0.30400  0.64400  0.35900  1.0000
  Ti  Ti2       1.0  0.69600  0.14400  0.14100  1.0000
  Ti  Ti3       1.0  0.69600  0.35600  0.64100  1.0000
  Ti  Ti4       1.0  0.30400  0.85600  0.85900  1.0000
