data_image0
_chemical_formula_structural       PdSe6Ta2
_chemical_formula_sum              "Pd1 Se6 Ta2"
_cell_length_a       3.4019
_cell_length_b       6.7359
_cell_length_c       9.73531
_cell_angle_alpha    96.3236
_cell_angle_beta     100.062
_cell_angle_gamma    104.627

_space_group_name_H-M_alt    "P 1"
_space_group_IT_number       1

loop_
  _space_group_symop_operation_xyz
  'x, y, z'

loop_
  _atom_site_type_symbol
  _atom_site_label
  _atom_site_symmetry_multiplicity
  _atom_site_fract_x
  _atom_site_fract_y
  _atom_site_fract_z
  _atom_site_occupancy
  Pd  Pd1       1.0  0.00000  0.00000  0.00000  1.0000
  Se  Se1       1.0  0.91300  0.69700  0.12800  1.0000
  Se  Se2       1.0  0.22900  0.21900  0.23900  1.0000
  Se  Se3       1.0  0.12500  0.78700  0.46200  1.0000
  Se  Se4       1.0  0.87500  0.21300  0.53800  1.0000
  Se  Se5       1.0  0.77100  0.78100  0.76100  1.0000
  Se  Se6       1.0  0.08740  0.30300  0.87200  1.0000
  Ta  Ta1       1.0  0.61100  0.93200  0.29000  1.0000
  Ta  Ta2       1.0  0.38900  0.06820  0.71000  1.0000
