data_image0
_chemical_formula_structural       C60K6
_chemical_formula_sum              "C60 K6"
_cell_length_a       9.75539
_cell_length_b       9.75539
_cell_length_c       9.75539
_cell_angle_alpha    109.471
_cell_angle_beta     109.471
_cell_angle_gamma    109.471

_space_group_name_H-M_alt    "P 1"
_space_group_IT_number       1

loop_
  _space_group_symop_operation_xyz
  'x, y, z'

loop_
  _atom_site_type_symbol
  _atom_site_label
  _atom_site_symmetry_multiplicity
  _atom_site_fract_x
  _atom_site_fract_y
  _atom_site_fract_z
  _atom_site_occupancy
  C   C1        1.0  0.43600  0.29400  0.26900  1.0000
  C   C2        1.0  0.02500  0.16600  0.73100  1.0000
  C   C3        1.0  0.56400  0.83400  0.85900  1.0000
  C   C4        1.0  0.97500  0.70600  0.14100  1.0000
  C   C5        1.0  0.26900  0.43600  0.29400  1.0000
  C   C6        1.0  0.29400  0.26900  0.43600  1.0000
  C   C7        1.0  0.14100  0.97500  0.70600  1.0000
  C   C8        1.0  0.16600  0.73100  0.02500  1.0000
  C   C9        1.0  0.73100  0.02500  0.16600  1.0000
  C   C10       1.0  0.83400  0.85900  0.56400  1.0000
  C   C11       1.0  0.85900  0.56400  0.83400  1.0000
  C   C12       1.0  0.70600  0.14100  0.97500  1.0000
  C   C13       1.0  0.56400  0.70600  0.73100  1.0000
  C   C14       1.0  0.97500  0.83400  0.26900  1.0000
  C   C15       1.0  0.43600  0.16600  0.14100  1.0000
  C   C16       1.0  0.02500  0.29400  0.85900  1.0000
  C   C17       1.0  0.73100  0.56400  0.70600  1.0000
  C   C18       1.0  0.70600  0.73100  0.56400  1.0000
  C   C19       1.0  0.85900  0.02500  0.29400  1.0000
  C   C20       1.0  0.83400  0.26900  0.97500  1.0000
  C   C21       1.0  0.26900  0.97500  0.83400  1.0000
  C   C22       1.0  0.16600  0.14100  0.43600  1.0000
  C   C23       1.0  0.14100  0.43600  0.16600  1.0000
  C   C24       1.0  0.29400  0.85900  0.02500  1.0000
  C   C25       1.0  0.37400  0.39700  0.23100  1.0000
  C   C26       1.0  0.16600  0.14300  0.76900  1.0000
  C   C27       1.0  0.62600  0.85700  0.02370  1.0000
  C   C28       1.0  0.83400  0.60300  0.97600  1.0000
  C   C29       1.0  0.23100  0.37400  0.39700  1.0000
  C   C30       1.0  0.39700  0.23100  0.37400  1.0000
  C   C31       1.0  0.97600  0.83400  0.60300  1.0000
  C   C32       1.0  0.14300  0.76900  0.16600  1.0000
  C   C33       1.0  0.76900  0.16600  0.14300  1.0000
  C   C34       1.0  0.85700  0.02370  0.62600  1.0000
  C   C35       1.0  0.02370  0.62600  0.85700  1.0000
  C   C36       1.0  0.60300  0.97600  0.83400  1.0000
  C   C37       1.0  0.62600  0.60300  0.76900  1.0000
  C   C38       1.0  0.83400  0.85700  0.23100  1.0000
  C   C39       1.0  0.37400  0.14300  0.97600  1.0000
  C   C40       1.0  0.16600  0.39700  0.02370  1.0000
  C   C41       1.0  0.76900  0.62600  0.60300  1.0000
  C   C42       1.0  0.60300  0.76900  0.62600  1.0000
  C   C43       1.0  0.02370  0.16600  0.39700  1.0000
  C   C44       1.0  0.85700  0.23100  0.83400  1.0000
  C   C45       1.0  0.23100  0.83400  0.85700  1.0000
  C   C46       1.0  0.14300  0.97600  0.37400  1.0000
  C   C47       1.0  0.97600  0.37400  0.14300  1.0000
  C   C48       1.0  0.39700  0.02370  0.16600  1.0000
  C   C49       1.0  0.31000  0.37400  0.06340  1.0000
  C   C50       1.0  0.31000  0.24700  0.93700  1.0000
  C   C51       1.0  0.69000  0.75300  0.06340  1.0000
  C   C52       1.0  0.69000  0.62600  0.93700  1.0000
  C   C53       1.0  0.06340  0.31000  0.37400  1.0000
  C   C54       1.0  0.37400  0.06340  0.31000  1.0000
  C   C55       1.0  0.93700  0.69000  0.62600  1.0000
  C   C56       1.0  0.24700  0.93700  0.31000  1.0000
  C   C57       1.0  0.93700  0.31000  0.24700  1.0000
  C   C58       1.0  0.75300  0.06340  0.69000  1.0000
  C   C59       1.0  0.06340  0.69000  0.75300  1.0000
  C   C60       1.0  0.62600  0.93700  0.69000  1.0000
  K   K1        1.0  0.78200  0.28200  0.50000  1.0000
  K   K2        1.0  0.21800  0.71800  0.50000  1.0000
  K   K3        1.0  0.50000  0.78200  0.28200  1.0000
  K   K4        1.0  0.28200  0.50000  0.78200  1.0000
  K   K5        1.0  0.50000  0.21800  0.71800  1.0000
  K   K6        1.0  0.71800  0.50000  0.21800  1.0000
