data_image0
_chemical_formula_structural       K6Mo4Np2O20
_chemical_formula_sum              "K6 Mo4 Np2 O20"
_cell_length_a       7.09787
_cell_length_b       7.5562
_cell_length_c       10.0263
_cell_angle_alpha    89.6566
_cell_angle_beta     95.3912
_cell_angle_gamma    110.68

_space_group_name_H-M_alt    "P 1"
_space_group_IT_number       1

loop_
  _space_group_symop_operation_xyz
  'x, y, z'

loop_
  _atom_site_type_symbol
  _atom_site_label
  _atom_site_symmetry_multiplicity
  _atom_site_fract_x
  _atom_site_fract_y
  _atom_site_fract_z
  _atom_site_occupancy
  K   K1        1.0  0.21800  0.85300  0.23000  1.0000
  K   K2        1.0  0.27500  0.12100  0.60500  1.0000
  K   K3        1.0  0.72500  0.87900  0.39500  1.0000
  K   K4        1.0  0.78200  0.14700  0.77000  1.0000
  K   K5        1.0  0.72800  0.38400  0.05980  1.0000
  K   K6        1.0  0.27200  0.61600  0.94000  1.0000
  Mo  Mo1       1.0  0.24500  0.11800  0.94300  1.0000
  Mo  Mo2       1.0  0.75500  0.88200  0.05710  1.0000
  Mo  Mo3       1.0  0.29100  0.61500  0.57600  1.0000
  Mo  Mo4       1.0  0.70900  0.38500  0.42400  1.0000
  Np  Np1       1.0  0.14000  0.30100  0.26500  1.0000
  Np  Np2       1.0  0.86000  0.69900  0.73500  1.0000
  O   O1        1.0  0.45600  0.09910  0.87400  1.0000
  O   O2        1.0  0.54400  0.90100  0.12600  1.0000
  O   O3        1.0  0.12200  0.39300  0.50200  1.0000
  O   O4        1.0  0.87800  0.60700  0.49800  1.0000
  O   O5        1.0  0.17400  0.27300  0.83400  1.0000
  O   O6        1.0  0.82600  0.72700  0.16600  1.0000
  O   O7        1.0  0.34400  0.22400  0.10800  1.0000
  O   O8        1.0  0.65600  0.77600  0.89200  1.0000
  O   O9        1.0  0.06440  0.87300  0.93900  1.0000
  O   O10       1.0  0.93600  0.12700  0.06110  1.0000
  O   O11       1.0  0.19900  0.71900  0.70500  1.0000
  O   O12       1.0  0.80100  0.28100  0.29500  1.0000
  O   O13       1.0  0.51200  0.57000  0.64400  1.0000
  O   O14       1.0  0.48800  0.43000  0.35600  1.0000
  O   O15       1.0  0.36300  0.79000  0.45600  1.0000
  O   O16       1.0  0.63700  0.21000  0.54400  1.0000
  O   O17       1.0  0.10600  0.07820  0.35300  1.0000
  O   O18       1.0  0.89400  0.92200  0.64700  1.0000
  O   O19       1.0  0.16200  0.51700  0.17400  1.0000
  O   O20       1.0  0.83800  0.48300  0.82600  1.0000
