data_image0
_chemical_formula_structural       Cs4F12Na2Ti2
_chemical_formula_sum              "Cs4 F12 Na2 Ti2"
_cell_length_a       10.3747
_cell_length_b       10.3747
_cell_length_c       10.3747
_cell_angle_alpha    33.1668
_cell_angle_beta     33.1668
_cell_angle_gamma    33.1668

_space_group_name_H-M_alt    "P 1"
_space_group_IT_number       1

loop_
  _space_group_symop_operation_xyz
  'x, y, z'

loop_
  _atom_site_type_symbol
  _atom_site_label
  _atom_site_symmetry_multiplicity
  _atom_site_fract_x
  _atom_site_fract_y
  _atom_site_fract_z
  _atom_site_occupancy
  Cs  Cs1       1.0  0.12600  0.12600  0.12600  1.0000
  Cs  Cs2       1.0  0.87400  0.87400  0.87400  1.0000
  Cs  Cs3       1.0  0.28500  0.28500  0.28500  1.0000
  Cs  Cs4       1.0  0.71500  0.71500  0.71500  1.0000
  F   F1        1.0  0.61700  0.14900  0.61700  1.0000
  F   F2        1.0  0.61700  0.61700  0.14900  1.0000
  F   F3        1.0  0.14900  0.61700  0.61700  1.0000
  F   F4        1.0  0.85100  0.38300  0.38300  1.0000
  F   F5        1.0  0.38300  0.38300  0.85100  1.0000
  F   F6        1.0  0.38300  0.85100  0.38300  1.0000
  F   F7        1.0  0.80600  0.27400  0.80600  1.0000
  F   F8        1.0  0.80600  0.80600  0.27400  1.0000
  F   F9        1.0  0.27400  0.80600  0.80600  1.0000
  F   F10       1.0  0.72600  0.19400  0.19400  1.0000
  F   F11       1.0  0.19400  0.19400  0.72600  1.0000
  F   F12       1.0  0.19400  0.72600  0.19400  1.0000
  Na  Na1       1.0  0.40700  0.40700  0.40700  1.0000
  Na  Na2       1.0  0.59300  0.59300  0.59300  1.0000
  Ti  Ti1       1.0  0.00000  0.00000  0.00000  1.0000
  Ti  Ti2       1.0  0.50000  0.50000  0.50000  1.0000
