data_image0
_chemical_formula_structural       H8K2O14V2
_chemical_formula_sum              "H8 K2 O14 V2"
_cell_length_a       5.69402
_cell_length_b       6.79214
_cell_length_c       6.43178
_cell_angle_alpha    109.42
_cell_angle_beta     99.7793
_cell_angle_gamma    104.114

_space_group_name_H-M_alt    "P 1"
_space_group_IT_number       1

loop_
  _space_group_symop_operation_xyz
  'x, y, z'

loop_
  _atom_site_type_symbol
  _atom_site_label
  _atom_site_symmetry_multiplicity
  _atom_site_fract_x
  _atom_site_fract_y
  _atom_site_fract_z
  _atom_site_occupancy
  H   H1        1.0  0.05470  0.20200  0.39400  1.0000
  H   H2        1.0  0.80900  0.63400  0.34200  1.0000
  H   H3        1.0  0.96600  0.73800  0.17800  1.0000
  H   H4        1.0  0.26300  0.71200  0.33200  1.0000
  H   H5        1.0  0.50300  0.32400  0.07270  1.0000
  H   H6        1.0  0.05860  0.10500  0.42300  1.0000
  H   H7        1.0  0.56900  0.88300  0.13100  1.0000
  H   H8        1.0  0.76200  0.28200  0.93700  1.0000
  K   K1        1.0  0.53300  0.21100  0.43900  1.0000
  K   K2        1.0  0.02750  0.03760  0.98200  1.0000
  O   O1        1.0  0.77200  0.78400  0.14300  1.0000
  O   O2        1.0  0.69900  0.68100  0.88800  1.0000
  O   O3        1.0  0.96600  0.32200  0.78500  1.0000
  O   O4        1.0  0.16100  0.64600  0.70800  1.0000
  O   O5        1.0  0.68000  0.94100  0.59900  1.0000
  O   O6        1.0  0.48200  0.73100  0.49900  1.0000
  O   O7        1.0  0.66200  0.19500  0.00899  1.0000
  O   O8        1.0  0.39600  0.87500  0.04690  1.0000
  O   O9        1.0  0.24100  0.02020  0.66000  1.0000
  O   O10       1.0  0.01750  0.50100  0.48100  1.0000
  O   O11       1.0  0.79600  0.56100  0.45200  1.0000
  O   O12       1.0  0.51100  0.47700  0.81200  1.0000
  O   O13       1.0  0.11000  0.65200  0.19000  1.0000
  O   O14       1.0  0.36400  0.39400  0.12000  1.0000
  V   V1        1.0  0.43900  0.91700  0.76600  1.0000
  V   V2        1.0  0.23000  0.51800  0.94500  1.0000
