data_image0
_chemical_formula_structural       Co2Cs4Se4
_chemical_formula_sum              "Co2 Cs4 Se4"
_cell_length_a       8.5912
_cell_length_b       8.5912
_cell_length_c       8.5912
_cell_angle_alpha    129.152
_cell_angle_beta     69.1999
_cell_angle_gamma    136.363

_space_group_name_H-M_alt    "P 1"
_space_group_IT_number       1

loop_
  _space_group_symop_operation_xyz
  'x, y, z'

loop_
  _atom_site_type_symbol
  _atom_site_label
  _atom_site_symmetry_multiplicity
  _atom_site_fract_x
  _atom_site_fract_y
  _atom_site_fract_z
  _atom_site_occupancy
  Co  Co1       1.0  0.25000  0.25000  0.00000  1.0000
  Co  Co2       1.0  0.75000  0.75000  0.00000  1.0000
  Cs  Cs1       1.0  0.14900  0.33600  0.48500  1.0000
  Cs  Cs2       1.0  0.85100  0.66400  0.51500  1.0000
  Cs  Cs3       1.0  0.35100  0.83600  0.18700  1.0000
  Cs  Cs4       1.0  0.64900  0.16400  0.81300  1.0000
  Se  Se1       1.0  0.91100  0.16100  0.07240  1.0000
  Se  Se2       1.0  0.08890  0.83900  0.92800  1.0000
  Se  Se3       1.0  0.58900  0.66100  0.25000  1.0000
  Se  Se4       1.0  0.41100  0.33900  0.75000  1.0000
