data_image0
_chemical_formula_structural       Ga8Mn4Te16
_chemical_formula_sum              "Ga8 Mn4 Te16"
_cell_length_a       27.3348
_cell_length_b       4.20756
_cell_length_c       6.99324
_cell_angle_alpha    90
_cell_angle_beta     90
_cell_angle_gamma    90

_space_group_name_H-M_alt    "P 1"
_space_group_IT_number       1

loop_
  _space_group_symop_operation_xyz
  'x, y, z'

loop_
  _atom_site_type_symbol
  _atom_site_label
  _atom_site_symmetry_multiplicity
  _atom_site_fract_x
  _atom_site_fract_y
  _atom_site_fract_z
  _atom_site_occupancy
  Ga  Ga1       1.0  0.04720  0.25000  0.07320  1.0000
  Ga  Ga2       1.0  0.45300  0.75000  0.57300  1.0000
  Ga  Ga3       1.0  0.54700  0.25000  0.42700  1.0000
  Ga  Ga4       1.0  0.95300  0.75000  0.92700  1.0000
  Ga  Ga5       1.0  0.15100  0.25000  0.45900  1.0000
  Ga  Ga6       1.0  0.34900  0.75000  0.95900  1.0000
  Ga  Ga7       1.0  0.65100  0.25000  0.04110  1.0000
  Ga  Ga8       1.0  0.84900  0.75000  0.54100  1.0000
  Mn  Mn1       1.0  0.30900  0.25000  0.35300  1.0000
  Mn  Mn2       1.0  0.19100  0.75000  0.85300  1.0000
  Mn  Mn3       1.0  0.80900  0.25000  0.14700  1.0000
  Mn  Mn4       1.0  0.69100  0.75000  0.64700  1.0000
  Te  Te1       1.0  0.23600  0.25000  0.64600  1.0000
  Te  Te2       1.0  0.26400  0.75000  0.14600  1.0000
  Te  Te3       1.0  0.73600  0.25000  0.85400  1.0000
  Te  Te4       1.0  0.76400  0.75000  0.35400  1.0000
  Te  Te5       1.0  0.89500  0.25000  0.38400  1.0000
  Te  Te6       1.0  0.60500  0.75000  0.88400  1.0000
  Te  Te7       1.0  0.39500  0.25000  0.11600  1.0000
  Te  Te8       1.0  0.10500  0.75000  0.61600  1.0000
  Te  Te9       1.0  0.14400  0.25000  0.07470  1.0000
  Te  Te10      1.0  0.35600  0.75000  0.57500  1.0000
  Te  Te11      1.0  0.64400  0.25000  0.42500  1.0000
  Te  Te12      1.0  0.85600  0.75000  0.92500  1.0000
  Te  Te13      1.0  0.99500  0.25000  0.74600  1.0000
  Te  Te14      1.0  0.50500  0.75000  0.24600  1.0000
  Te  Te15      1.0  0.49500  0.25000  0.75400  1.0000
  Te  Te16      1.0  0.00541  0.75000  0.25400  1.0000
