data_image0
_chemical_formula_structural       La16Mo8O44
_chemical_formula_sum              "La16 Mo8 O44"
_cell_length_a       12.9255
_cell_length_b       12.9255
_cell_length_c       5.62735
_cell_angle_alpha    90
_cell_angle_beta     90
_cell_angle_gamma    90

_space_group_name_H-M_alt    "P 1"
_space_group_IT_number       1

loop_
  _space_group_symop_operation_xyz
  'x, y, z'

loop_
  _atom_site_type_symbol
  _atom_site_label
  _atom_site_symmetry_multiplicity
  _atom_site_fract_x
  _atom_site_fract_y
  _atom_site_fract_z
  _atom_site_occupancy
  La  La1       1.0  0.38200  0.18100  0.00300  1.0000
  La  La2       1.0  0.11800  0.31900  0.00300  1.0000
  La  La3       1.0  0.68100  0.61800  0.50300  1.0000
  La  La4       1.0  0.81900  0.88200  0.50300  1.0000
  La  La5       1.0  0.61800  0.81900  0.99700  1.0000
  La  La6       1.0  0.88200  0.68100  0.99700  1.0000
  La  La7       1.0  0.31900  0.38200  0.49700  1.0000
  La  La8       1.0  0.18100  0.11800  0.49700  1.0000
  La  La9       1.0  0.38700  0.69700  0.41800  1.0000
  La  La10      1.0  0.11300  0.80300  0.41800  1.0000
  La  La11      1.0  0.19700  0.61300  0.91800  1.0000
  La  La12      1.0  0.30300  0.88700  0.91800  1.0000
  La  La13      1.0  0.61300  0.30300  0.58200  1.0000
  La  La14      1.0  0.88700  0.19700  0.58200  1.0000
  La  La15      1.0  0.80300  0.38700  0.08170  1.0000
  La  La16      1.0  0.69700  0.11300  0.08170  1.0000
  Mo  Mo1       1.0  0.47600  0.59100  0.92100  1.0000
  Mo  Mo2       1.0  0.02390  0.90900  0.92100  1.0000
  Mo  Mo3       1.0  0.09100  0.52400  0.42100  1.0000
  Mo  Mo4       1.0  0.40900  0.97600  0.42100  1.0000
  Mo  Mo5       1.0  0.52400  0.40900  0.07910  1.0000
  Mo  Mo6       1.0  0.97600  0.09100  0.07910  1.0000
  Mo  Mo7       1.0  0.90900  0.47600  0.57900  1.0000
  Mo  Mo8       1.0  0.59100  0.02390  0.57900  1.0000
  O   O1        1.0  0.79600  0.35200  0.50400  1.0000
  O   O2        1.0  0.85200  0.20400  0.00433  1.0000
  O   O3        1.0  0.64800  0.29600  0.00433  1.0000
  O   O4        1.0  0.29600  0.85200  0.49600  1.0000
  O   O5        1.0  0.20400  0.64800  0.49600  1.0000
  O   O6        1.0  0.14800  0.79600  0.99600  1.0000
  O   O7        1.0  0.35200  0.70400  0.99600  1.0000
  O   O8        1.0  0.70400  0.14800  0.50400  1.0000
  O   O9        1.0  0.37300  0.54600  0.71400  1.0000
  O   O10       1.0  0.12700  0.95400  0.71400  1.0000
  O   O11       1.0  0.04610  0.62700  0.21400  1.0000
  O   O12       1.0  0.45400  0.87300  0.21400  1.0000
  O   O13       1.0  0.62700  0.45400  0.28600  1.0000
  O   O14       1.0  0.87300  0.04610  0.28600  1.0000
  O   O15       1.0  0.95400  0.37300  0.78600  1.0000
  O   O16       1.0  0.54600  0.12700  0.78600  1.0000
  O   O17       1.0  0.45500  0.33900  0.82200  1.0000
  O   O18       1.0  0.04540  0.16100  0.82200  1.0000
  O   O19       1.0  0.83900  0.54500  0.32200  1.0000
  O   O20       1.0  0.66100  0.95500  0.32200  1.0000
  O   O21       1.0  0.54500  0.66100  0.17800  1.0000
  O   O22       1.0  0.95500  0.83900  0.17800  1.0000
  O   O23       1.0  0.16100  0.45500  0.67800  1.0000
  O   O24       1.0  0.33900  0.04540  0.67800  1.0000
  O   O25       1.0  0.41400  0.50200  0.19400  1.0000
  O   O26       1.0  0.08640  0.99800  0.19400  1.0000
  O   O27       1.0  0.00171  0.58600  0.69400  1.0000
  O   O28       1.0  0.49800  0.91400  0.69400  1.0000
  O   O29       1.0  0.58600  0.49800  0.80600  1.0000
  O   O30       1.0  0.91400  0.00171  0.80600  1.0000
  O   O31       1.0  0.99800  0.41400  0.30600  1.0000
  O   O32       1.0  0.50200  0.08640  0.30600  1.0000
  O   O33       1.0  0.75000  0.75000  0.75000  1.0000
  O   O34       1.0  0.25000  0.25000  0.25000  1.0000
  O   O35       1.0  0.75000  0.75000  0.25000  1.0000
  O   O36       1.0  0.25000  0.25000  0.75000  1.0000
  O   O37       1.0  0.47000  0.30500  0.30200  1.0000
  O   O38       1.0  0.03020  0.19500  0.30200  1.0000
  O   O39       1.0  0.80500  0.53000  0.80200  1.0000
  O   O40       1.0  0.69500  0.97000  0.80200  1.0000
  O   O41       1.0  0.53000  0.69500  0.69800  1.0000
  O   O42       1.0  0.97000  0.80500  0.69800  1.0000
  O   O43       1.0  0.19500  0.47000  0.19800  1.0000
  O   O44       1.0  0.30500  0.03020  0.19800  1.0000
