data_image0
_chemical_formula_structural       Br4Cu2H16O8
_chemical_formula_sum              "Br4 Cu2 H16 O8"
_cell_length_a       10.2217
_cell_length_b       7.40374
_cell_length_c       4.11698
_cell_angle_alpha    90
_cell_angle_beta     109.588
_cell_angle_gamma    90

_space_group_name_H-M_alt    "P 1"
_space_group_IT_number       1

loop_
  _space_group_symop_operation_xyz
  'x, y, z'

loop_
  _atom_site_type_symbol
  _atom_site_label
  _atom_site_symmetry_multiplicity
  _atom_site_fract_x
  _atom_site_fract_y
  _atom_site_fract_z
  _atom_site_occupancy
  Br  Br1       1.0  0.94800  0.69500  0.49800  1.0000
  Br  Br2       1.0  0.55200  0.19500  0.50200  1.0000
  Br  Br3       1.0  0.05150  0.30500  0.50200  1.0000
  Br  Br4       1.0  0.44800  0.80500  0.49800  1.0000
  Cu  Cu1       1.0  0.00000  0.00000  0.00000  1.0000
  Cu  Cu2       1.0  0.50000  0.50000  0.00000  1.0000
  H   H1        1.0  0.25700  0.08590  0.46000  1.0000
  H   H2        1.0  0.24300  0.58600  0.54000  1.0000
  H   H3        1.0  0.74300  0.91400  0.54000  1.0000
  H   H4        1.0  0.75700  0.41400  0.46000  1.0000
  H   H5        1.0  0.28500  0.88600  0.91400  1.0000
  H   H6        1.0  0.21500  0.38600  0.08600  1.0000
  H   H7        1.0  0.71500  0.11400  0.08600  1.0000
  H   H8        1.0  0.78500  0.61400  0.91400  1.0000
  H   H9        1.0  0.33000  0.96900  0.94400  1.0000
  H   H10       1.0  0.17000  0.46900  0.05590  1.0000
  H   H11       1.0  0.67000  0.03090  0.05590  1.0000
  H   H12       1.0  0.83000  0.53100  0.94400  1.0000
  H   H13       1.0  0.23500  0.62400  0.70200  1.0000
  H   H14       1.0  0.26500  0.12400  0.29800  1.0000
  H   H15       1.0  0.76500  0.37600  0.29800  1.0000
  H   H16       1.0  0.73500  0.87600  0.70200  1.0000
  O   O1        1.0  0.10100  0.10700  0.73500  1.0000
  O   O2        1.0  0.39900  0.60700  0.26500  1.0000
  O   O3        1.0  0.89900  0.89300  0.26500  1.0000
  O   O4        1.0  0.60100  0.39300  0.73500  1.0000
  O   O5        1.0  0.93400  0.23800  0.10100  1.0000
  O   O6        1.0  0.56600  0.73800  0.89900  1.0000
  O   O7        1.0  0.06600  0.76200  0.89900  1.0000
  O   O8        1.0  0.43400  0.26200  0.10100  1.0000
