data_image0
_chemical_formula_structural       B4Fe8O16
_chemical_formula_sum              "B4 Fe8 O16"
_cell_length_a       3.09669
_cell_length_b       9.30225
_cell_length_c       9.19441
_cell_angle_alpha    90
_cell_angle_beta     90.0344
_cell_angle_gamma    90

_space_group_name_H-M_alt    "P 1"
_space_group_IT_number       1

loop_
  _space_group_symop_operation_xyz
  'x, y, z'

loop_
  _atom_site_type_symbol
  _atom_site_label
  _atom_site_symmetry_multiplicity
  _atom_site_fract_x
  _atom_site_fract_y
  _atom_site_fract_z
  _atom_site_occupancy
  B   B1        1.0  0.74900  0.37900  0.15800  1.0000
  B   B2        1.0  0.25100  0.87900  0.34200  1.0000
  B   B3        1.0  0.25100  0.62100  0.84200  1.0000
  B   B4        1.0  0.74900  0.12100  0.65800  1.0000
  Fe  Fe1       1.0  0.24900  0.19600  0.38900  1.0000
  Fe  Fe2       1.0  0.75100  0.69600  0.11100  1.0000
  Fe  Fe3       1.0  0.75100  0.80400  0.61100  1.0000
  Fe  Fe4       1.0  0.24900  0.30400  0.88900  1.0000
  Fe  Fe5       1.0  0.75000  0.06910  0.11900  1.0000
  Fe  Fe6       1.0  0.25000  0.56900  0.38100  1.0000
  Fe  Fe7       1.0  0.25000  0.93100  0.88100  1.0000
  Fe  Fe8       1.0  0.75000  0.43100  0.61900  1.0000
  O   O1        1.0  0.74900  0.37500  0.01340  1.0000
  O   O2        1.0  0.25100  0.87500  0.48700  1.0000
  O   O3        1.0  0.25100  0.62500  0.98700  1.0000
  O   O4        1.0  0.74900  0.12500  0.51300  1.0000
  O   O5        1.0  0.74900  0.25200  0.23900  1.0000
  O   O6        1.0  0.25100  0.75200  0.26100  1.0000
  O   O7        1.0  0.25100  0.74800  0.76100  1.0000
  O   O8        1.0  0.74900  0.24800  0.73900  1.0000
  O   O9        1.0  0.24900  0.00864  0.26400  1.0000
  O   O10       1.0  0.75100  0.50900  0.23600  1.0000
  O   O11       1.0  0.75100  0.99100  0.73600  1.0000
  O   O12       1.0  0.24900  0.49100  0.76400  1.0000
  O   O13       1.0  0.25000  0.11800  0.99000  1.0000
  O   O14       1.0  0.75000  0.61800  0.51000  1.0000
  O   O15       1.0  0.75000  0.88200  0.00991  1.0000
  O   O16       1.0  0.25000  0.38200  0.49000  1.0000
