data_image0
_chemical_formula_structural       B12H10K4N2O4
_chemical_formula_sum              "B12 H10 K4 N2 O4"
_cell_length_a       5.83473
_cell_length_b       7.67068
_cell_length_c       8.62954
_cell_angle_alpha    90
_cell_angle_beta     109.82
_cell_angle_gamma    90

_space_group_name_H-M_alt    "P 1"
_space_group_IT_number       1

loop_
  _space_group_symop_operation_xyz
  'x, y, z'

loop_
  _atom_site_type_symbol
  _atom_site_label
  _atom_site_symmetry_multiplicity
  _atom_site_fract_x
  _atom_site_fract_y
  _atom_site_fract_z
  _atom_site_occupancy
  B   B1        1.0  0.22400  0.25000  0.94900  1.0000
  B   B2        1.0  0.77600  0.75000  0.05050  1.0000
  B   B3        1.0  0.07640  0.25000  0.65500  1.0000
  B   B4        1.0  0.92400  0.75000  0.34500  1.0000
  B   B5        1.0  0.69900  0.86200  0.19900  1.0000
  B   B6        1.0  0.30100  0.36200  0.80100  1.0000
  B   B7        1.0  0.30100  0.13800  0.80100  1.0000
  B   B8        1.0  0.69900  0.63800  0.19900  1.0000
  B   B9        1.0  0.99900  0.13800  0.80200  1.0000
  B   B10       1.0  0.00059  0.63800  0.19800  1.0000
  B   B11       1.0  0.00059  0.86200  0.19800  1.0000
  B   B12       1.0  0.99900  0.36200  0.80200  1.0000
  H   H1        1.0  0.85600  0.02760  0.80400  1.0000
  H   H2        1.0  0.14400  0.52800  0.19600  1.0000
  H   H3        1.0  0.14400  0.97200  0.19600  1.0000
  H   H4        1.0  0.85600  0.47200  0.80400  1.0000
  H   H5        1.0  0.29800  0.25000  0.09700  1.0000
  H   H6        1.0  0.70200  0.75000  0.90300  1.0000
  H   H7        1.0  0.44600  0.02760  0.80400  1.0000
  H   H8        1.0  0.55400  0.52800  0.19600  1.0000
  H   H9        1.0  0.55400  0.97200  0.19600  1.0000
  H   H10       1.0  0.44600  0.47200  0.80400  1.0000
  K   K1        1.0  0.50000  0.00000  0.50000  1.0000
  K   K2        1.0  0.50000  0.50000  0.50000  1.0000
  K   K3        1.0  0.78600  0.25000  0.07330  1.0000
  K   K4        1.0  0.21400  0.75000  0.92700  1.0000
  N   N1        1.0  0.98400  0.25000  0.47200  1.0000
  N   N2        1.0  0.01590  0.75000  0.52800  1.0000
  O   O1        1.0  0.75700  0.25000  0.39200  1.0000
  O   O2        1.0  0.24300  0.75000  0.60800  1.0000
  O   O3        1.0  0.13100  0.25000  0.39200  1.0000
  O   O4        1.0  0.86900  0.75000  0.60800  1.0000
