data_image0
_chemical_formula_structural       Fe2I17Pr12
_chemical_formula_sum              "Fe2 I17 Pr12"
_cell_length_a       12.0016
_cell_length_b       12.0323
_cell_length_c       10.0141
_cell_angle_alpha    114.493
_cell_angle_beta     105.095
_cell_angle_gamma    93.3643

_space_group_name_H-M_alt    "P 1"
_space_group_IT_number       1

loop_
  _space_group_symop_operation_xyz
  'x, y, z'

loop_
  _atom_site_type_symbol
  _atom_site_label
  _atom_site_symmetry_multiplicity
  _atom_site_fract_x
  _atom_site_fract_y
  _atom_site_fract_z
  _atom_site_occupancy
  Fe  Fe1       1.0  0.78600  0.73700  0.10300  1.0000
  Fe  Fe2       1.0  0.21400  0.26300  0.89700  1.0000
  I   I1        1.0  0.00000  0.00195  0.00130  1.0000
  I   I2        1.0  0.63100  0.79100  0.67200  1.0000
  I   I3        1.0  0.36900  0.20900  0.32800  1.0000
  I   I4        1.0  0.95500  0.70300  0.54700  1.0000
  I   I5        1.0  0.04490  0.29700  0.45300  1.0000
  I   I6        1.0  0.16400  0.94300  0.41000  1.0000
  I   I7        1.0  0.83600  0.05680  0.59000  1.0000
  I   I8        1.0  0.41300  0.53100  0.77800  1.0000
  I   I9        1.0  0.58700  0.46900  0.22200  1.0000
  I   I10       1.0  0.24900  0.58200  0.36500  1.0000
  I   I11       1.0  0.75100  0.41800  0.63600  1.0000
  I   I12       1.0  0.32100  0.89400  0.84500  1.0000
  I   I13       1.0  0.67900  0.10600  0.15500  1.0000
  I   I14       1.0  0.46200  0.82000  0.24600  1.0000
  I   I15       1.0  0.53800  0.18000  0.75400  1.0000
  I   I16       1.0  0.10900  0.63400  0.94400  1.0000
  I   I17       1.0  0.89200  0.36400  0.05460  1.0000
  Pr  Pr1       1.0  0.01090  0.33100  0.77900  1.0000
  Pr  Pr2       1.0  0.98900  0.66800  0.22100  1.0000
  Pr  Pr3       1.0  0.41600  0.18900  0.01100  1.0000
  Pr  Pr4       1.0  0.58400  0.81100  0.98900  1.0000
  Pr  Pr5       1.0  0.10600  0.01600  0.73900  1.0000
  Pr  Pr6       1.0  0.89400  0.98400  0.26100  1.0000
  Pr  Pr7       1.0  0.15200  0.28900  0.15000  1.0000
  Pr  Pr8       1.0  0.84900  0.71200  0.85100  1.0000
  Pr  Pr9       1.0  0.28200  0.24100  0.64800  1.0000
  Pr  Pr10      1.0  0.71700  0.75900  0.35200  1.0000
  Pr  Pr11      1.0  0.32600  0.51000  0.05840  1.0000
  Pr  Pr12      1.0  0.67400  0.49000  0.94100  1.0000
