data_image0
_chemical_formula_structural       B3Li3Pt9
_chemical_formula_sum              "B3 Li3 Pt9"
_cell_length_a       9.32945
_cell_length_b       9.32904
_cell_length_c       2.7969
_cell_angle_alpha    90
_cell_angle_beta     90
_cell_angle_gamma    120.001

_space_group_name_H-M_alt    "P 1"
_space_group_IT_number       1

loop_
  _space_group_symop_operation_xyz
  'x, y, z'

loop_
  _atom_site_type_symbol
  _atom_site_label
  _atom_site_symmetry_multiplicity
  _atom_site_fract_x
  _atom_site_fract_y
  _atom_site_fract_z
  _atom_site_occupancy
  B   B1        1.0  0.66700  0.33300  0.00000  1.0000
  B   B2        1.0  0.33300  0.66700  0.00000  1.0000
  B   B3        1.0  0.00000  0.00000  0.50000  1.0000
  Li  Li1       1.0  0.36200  0.00000  0.00000  1.0000
  Li  Li2       1.0  0.00006  0.36200  0.00000  1.0000
  Li  Li3       1.0  0.63800  0.63800  0.00000  1.0000
  Pt  Pt1       1.0  0.51600  0.83500  0.50000  1.0000
  Pt  Pt2       1.0  0.16500  0.68200  0.50000  1.0000
  Pt  Pt3       1.0  0.31800  0.48400  0.50000  1.0000
  Pt  Pt4       1.0  0.68200  0.16500  0.50000  1.0000
  Pt  Pt5       1.0  0.48400  0.31800  0.50000  1.0000
  Pt  Pt6       1.0  0.83500  0.51600  0.50000  1.0000
  Pt  Pt7       1.0  0.82300  0.00000  0.00000  1.0000
  Pt  Pt8       1.0  0.00000  0.82300  0.00000  1.0000
  Pt  Pt9       1.0  0.17700  0.17700  0.00000  1.0000
