data_image0
_chemical_formula_structural       La12Li20Nb8O48
_chemical_formula_sum              "La12 Li20 Nb8 O48"
_cell_length_a       11.1215
_cell_length_b       11.1215
_cell_length_c       11.1215
_cell_angle_alpha    109.471
_cell_angle_beta     109.471
_cell_angle_gamma    109.471

_space_group_name_H-M_alt    "P 1"
_space_group_IT_number       1

loop_
  _space_group_symop_operation_xyz
  'x, y, z'

loop_
  _atom_site_type_symbol
  _atom_site_label
  _atom_site_symmetry_multiplicity
  _atom_site_fract_x
  _atom_site_fract_y
  _atom_site_fract_z
  _atom_site_occupancy
  La  La1       1.0  0.87500  0.62500  0.25000  1.0000
  La  La2       1.0  0.62500  0.25000  0.87500  1.0000
  La  La3       1.0  0.62500  0.87500  0.75000  1.0000
  La  La4       1.0  0.87500  0.75000  0.62500  1.0000
  La  La5       1.0  0.25000  0.87500  0.62500  1.0000
  La  La6       1.0  0.75000  0.62500  0.87500  1.0000
  La  La7       1.0  0.12500  0.37500  0.75000  1.0000
  La  La8       1.0  0.37500  0.75000  0.12500  1.0000
  La  La9       1.0  0.37500  0.12500  0.25000  1.0000
  La  La10      1.0  0.12500  0.25000  0.37500  1.0000
  La  La11      1.0  0.75000  0.12500  0.37500  1.0000
  La  La12      1.0  0.25000  0.37500  0.12500  1.0000
  Li  Li1       1.0  0.37500  0.62500  0.75000  1.0000
  Li  Li2       1.0  0.75000  0.37500  0.62500  1.0000
  Li  Li3       1.0  0.12500  0.87500  0.25000  1.0000
  Li  Li4       1.0  0.25000  0.12500  0.87500  1.0000
  Li  Li5       1.0  0.62500  0.75000  0.37500  1.0000
  Li  Li6       1.0  0.87500  0.25000  0.12500  1.0000
  Li  Li7       1.0  0.87500  0.12500  0.75000  1.0000
  Li  Li8       1.0  0.12500  0.75000  0.87500  1.0000
  Li  Li9       1.0  0.62500  0.37500  0.25000  1.0000
  Li  Li10      1.0  0.37500  0.25000  0.62500  1.0000
  Li  Li11      1.0  0.75000  0.87500  0.12500  1.0000
  Li  Li12      1.0  0.25000  0.62500  0.37500  1.0000
  Li  Li13      1.0  0.00000  0.75000  0.50000  1.0000
  Li  Li14      1.0  0.75000  0.50000  0.00000  1.0000
  Li  Li15      1.0  0.50000  0.00000  0.75000  1.0000
  Li  Li16      1.0  0.75000  0.75000  0.75000  1.0000
  Li  Li17      1.0  0.00000  0.25000  0.50000  1.0000
  Li  Li18      1.0  0.25000  0.50000  0.00000  1.0000
  Li  Li19      1.0  0.50000  0.00000  0.25000  1.0000
  Li  Li20      1.0  0.25000  0.25000  0.25000  1.0000
  Nb  Nb1       1.0  0.00000  0.50000  0.00000  1.0000
  Nb  Nb2       1.0  0.00000  0.00000  0.50000  1.0000
  Nb  Nb3       1.0  0.50000  0.00000  0.00000  1.0000
  Nb  Nb4       1.0  0.50000  0.50000  0.50000  1.0000
  Nb  Nb5       1.0  0.00000  0.50000  0.50000  1.0000
  Nb  Nb6       1.0  0.50000  0.50000  0.00000  1.0000
  Nb  Nb7       1.0  0.50000  0.00000  0.50000  1.0000
  Nb  Nb8       1.0  0.00000  0.00000  0.00000  1.0000
  O   O1        1.0  0.33100  0.91100  0.03300  1.0000
  O   O2        1.0  0.37800  0.29800  0.46700  1.0000
  O   O3        1.0  0.37800  0.58000  0.91100  1.0000
  O   O4        1.0  0.92000  0.29800  0.33100  1.0000
  O   O5        1.0  0.33100  0.92000  0.29800  1.0000
  O   O6        1.0  0.46700  0.58900  0.16900  1.0000
  O   O7        1.0  0.16900  0.46700  0.58900  1.0000
  O   O8        1.0  0.58000  0.91100  0.37800  1.0000
  O   O9        1.0  0.12200  0.03310  0.20200  1.0000
  O   O10       1.0  0.03310  0.20200  0.12200  1.0000
  O   O11       1.0  0.91100  0.37800  0.58000  1.0000
  O   O12       1.0  0.29800  0.33100  0.92000  1.0000
  O   O13       1.0  0.58900  0.16900  0.46700  1.0000
  O   O14       1.0  0.20200  0.12200  0.03310  1.0000
  O   O15       1.0  0.07990  0.87800  0.41100  1.0000
  O   O16       1.0  0.79800  0.42000  0.83100  1.0000
  O   O17       1.0  0.42000  0.83100  0.79800  1.0000
  O   O18       1.0  0.08940  0.96700  0.66900  1.0000
  O   O19       1.0  0.96700  0.66900  0.08940  1.0000
  O   O20       1.0  0.41100  0.07990  0.87800  1.0000
  O   O21       1.0  0.53300  0.62200  0.70200  1.0000
  O   O22       1.0  0.70200  0.53300  0.62200  1.0000
  O   O23       1.0  0.87800  0.41100  0.07990  1.0000
  O   O24       1.0  0.83100  0.79800  0.42000  1.0000
  O   O25       1.0  0.66900  0.08940  0.96700  1.0000
  O   O26       1.0  0.62200  0.70200  0.53300  1.0000
  O   O27       1.0  0.62200  0.42000  0.08940  1.0000
  O   O28       1.0  0.07990  0.70200  0.66900  1.0000
  O   O29       1.0  0.66900  0.07990  0.70200  1.0000
  O   O30       1.0  0.53300  0.41100  0.83100  1.0000
  O   O31       1.0  0.83100  0.53300  0.41100  1.0000
  O   O32       1.0  0.42000  0.08940  0.62200  1.0000
  O   O33       1.0  0.87800  0.96700  0.79800  1.0000
  O   O34       1.0  0.96700  0.79800  0.87800  1.0000
  O   O35       1.0  0.08940  0.62200  0.42000  1.0000
  O   O36       1.0  0.70200  0.66900  0.07990  1.0000
  O   O37       1.0  0.41100  0.83100  0.53300  1.0000
  O   O38       1.0  0.79800  0.87800  0.96700  1.0000
  O   O39       1.0  0.92000  0.12200  0.58900  1.0000
  O   O40       1.0  0.20200  0.58000  0.16900  1.0000
  O   O41       1.0  0.58000  0.16900  0.20200  1.0000
  O   O42       1.0  0.91100  0.03300  0.33100  1.0000
  O   O43       1.0  0.03300  0.33100  0.91100  1.0000
  O   O44       1.0  0.58900  0.92000  0.12200  1.0000
  O   O45       1.0  0.46700  0.37800  0.29800  1.0000
  O   O46       1.0  0.29800  0.46700  0.37800  1.0000
  O   O47       1.0  0.12200  0.58900  0.92000  1.0000
  O   O48       1.0  0.16900  0.20200  0.58000  1.0000
