data_image0
_chemical_formula_structural       O18S2Zr6
_chemical_formula_sum              "O18 S2 Zr6"
_cell_length_a       6.27236
_cell_length_b       6.27245
_cell_length_c       8.81264
_cell_angle_alpha    90.0036
_cell_angle_beta     89.9895
_cell_angle_gamma    120.033

_space_group_name_H-M_alt    "P 1"
_space_group_IT_number       1

loop_
  _space_group_symop_operation_xyz
  'x, y, z'

loop_
  _atom_site_type_symbol
  _atom_site_label
  _atom_site_symmetry_multiplicity
  _atom_site_fract_x
  _atom_site_fract_y
  _atom_site_fract_z
  _atom_site_occupancy
  O   O1        1.0  0.42000  0.29300  0.92000  1.0000
  O   O2        1.0  0.70700  0.12700  0.92000  1.0000
  O   O3        1.0  0.87300  0.58000  0.92000  1.0000
  O   O4        1.0  0.58000  0.70700  0.08000  1.0000
  O   O5        1.0  0.29300  0.87300  0.08000  1.0000
  O   O6        1.0  0.12700  0.42000  0.07990  1.0000
  O   O7        1.0  0.33400  0.00003  0.57800  1.0000
  O   O8        1.0  0.00015  0.33400  0.57800  1.0000
  O   O9        1.0  0.66600  0.66600  0.57800  1.0000
  O   O10       1.0  0.66600  0.00000  0.42200  1.0000
  O   O11       1.0  0.00000  0.66600  0.42200  1.0000
  O   O12       1.0  0.33400  0.33400  0.42200  1.0000
  O   O13       1.0  0.33300  0.66700  0.75400  1.0000
  O   O14       1.0  0.66700  0.33300  0.24600  1.0000
  O   O15       1.0  0.66700  0.33300  0.71100  1.0000
  O   O16       1.0  0.33300  0.66700  0.28900  1.0000
  O   O17       1.0  0.00000  0.00006  0.74400  1.0000
  O   O18       1.0  0.00000  1.00000  0.25600  1.0000
  S   S1        1.0  0.66700  0.33300  0.88700  1.0000
  S   S2        1.0  0.33300  0.66700  0.11300  1.0000
  Zr  Zr1       1.0  0.66800  0.97000  0.66600  1.0000
  Zr  Zr2       1.0  0.02980  0.69700  0.66600  1.0000
  Zr  Zr3       1.0  0.30300  0.33300  0.66600  1.0000
  Zr  Zr4       1.0  0.33200  0.02970  0.33400  1.0000
  Zr  Zr5       1.0  0.97000  0.30300  0.33400  1.0000
  Zr  Zr6       1.0  0.69700  0.66700  0.33400  1.0000
