data_image0
_chemical_formula_structural       B16Li4O40Sc4Sr8
_chemical_formula_sum              "B16 Li4 O40 Sc4 Sr8"
_cell_length_a       12.0596
_cell_length_b       5.20069
_cell_length_c       13.2032
_cell_angle_alpha    90
_cell_angle_beta     114.501
_cell_angle_gamma    90

_space_group_name_H-M_alt    "P 1"
_space_group_IT_number       1

loop_
  _space_group_symop_operation_xyz
  'x, y, z'

loop_
  _atom_site_type_symbol
  _atom_site_label
  _atom_site_symmetry_multiplicity
  _atom_site_fract_x
  _atom_site_fract_y
  _atom_site_fract_z
  _atom_site_occupancy
  B   B1        1.0  0.41700  0.06210  0.27900  1.0000
  B   B2        1.0  0.08280  0.56200  0.22100  1.0000
  B   B3        1.0  0.58300  0.93800  0.72100  1.0000
  B   B4        1.0  0.91700  0.43800  0.77900  1.0000
  B   B5        1.0  0.09140  0.61400  0.95300  1.0000
  B   B6        1.0  0.40900  0.11400  0.54700  1.0000
  B   B7        1.0  0.90900  0.38600  0.04730  1.0000
  B   B8        1.0  0.59100  0.88600  0.45300  1.0000
  B   B9        1.0  0.10400  0.64200  0.71200  1.0000
  B   B10       1.0  0.39600  0.14200  0.78800  1.0000
  B   B11       1.0  0.89600  0.35800  0.28800  1.0000
  B   B12       1.0  0.60400  0.85800  0.21200  1.0000
  B   B13       1.0  0.42600  0.08450  0.05500  1.0000
  B   B14       1.0  0.07410  0.58400  0.44500  1.0000
  B   B15       1.0  0.57400  0.91600  0.94500  1.0000
  B   B16       1.0  0.92600  0.41600  0.55500  1.0000
  Li  Li1       1.0  0.61500  0.39300  0.09460  1.0000
  Li  Li2       1.0  0.88500  0.89300  0.40500  1.0000
  Li  Li3       1.0  0.38500  0.60700  0.90500  1.0000
  Li  Li4       1.0  0.11500  0.10700  0.59500  1.0000
  O   O1        1.0  0.14000  0.33700  0.26300  1.0000
  O   O2        1.0  0.36000  0.83700  0.23700  1.0000
  O   O3        1.0  0.86000  0.66300  0.73700  1.0000
  O   O4        1.0  0.64000  0.16300  0.76300  1.0000
  O   O5        1.0  0.38900  0.32000  0.00756  1.0000
  O   O6        1.0  0.11100  0.82000  0.49200  1.0000
  O   O7        1.0  0.61100  0.68000  0.99200  1.0000
  O   O8        1.0  0.88900  0.18000  0.50800  1.0000
  O   O9        1.0  0.05220  0.87800  0.68500  1.0000
  O   O10       1.0  0.44800  0.37800  0.81500  1.0000
  O   O11       1.0  0.94800  0.12200  0.31500  1.0000
  O   O12       1.0  0.55200  0.62200  0.18500  1.0000
  O   O13       1.0  0.06510  0.86500  0.93200  1.0000
  O   O14       1.0  0.43500  0.36500  0.56800  1.0000
  O   O15       1.0  0.93500  0.13500  0.06760  1.0000
  O   O16       1.0  0.56500  0.63500  0.43200  1.0000
  O   O17       1.0  0.35300  0.87600  0.01520  1.0000
  O   O18       1.0  0.14700  0.37600  0.48500  1.0000
  O   O19       1.0  0.64700  0.12400  0.98500  1.0000
  O   O20       1.0  0.85300  0.62400  0.51500  1.0000
  O   O21       1.0  0.02570  0.41900  0.87600  1.0000
  O   O22       1.0  0.47400  0.91900  0.62400  1.0000
  O   O23       1.0  0.97400  0.58100  0.12400  1.0000
  O   O24       1.0  0.52600  0.08120  0.37600  1.0000
  O   O25       1.0  0.04170  0.42400  0.64700  1.0000
  O   O26       1.0  0.45800  0.92400  0.85300  1.0000
  O   O27       1.0  0.95800  0.57600  0.35300  1.0000
  O   O28       1.0  0.54200  0.07590  0.14700  1.0000
  O   O29       1.0  0.17900  0.51800  0.04930  1.0000
  O   O30       1.0  0.32100  0.01840  0.45100  1.0000
  O   O31       1.0  0.82100  0.48200  0.95100  1.0000
  O   O32       1.0  0.67900  0.98200  0.54900  1.0000
  O   O33       1.0  0.21500  0.59800  0.79500  1.0000
  O   O34       1.0  0.28500  0.09800  0.70500  1.0000
  O   O35       1.0  0.78500  0.40200  0.20500  1.0000
  O   O36       1.0  0.71500  0.90200  0.29500  1.0000
  O   O37       1.0  0.36600  0.28800  0.23000  1.0000
  O   O38       1.0  0.13400  0.78800  0.27000  1.0000
  O   O39       1.0  0.63400  0.71200  0.77000  1.0000
  O   O40       1.0  0.86600  0.21200  0.73000  1.0000
  Sc  Sc1       1.0  0.13400  0.07140  0.37800  1.0000
  Sc  Sc2       1.0  0.36600  0.57100  0.12200  1.0000
  Sc  Sc3       1.0  0.86600  0.92900  0.62200  1.0000
  Sc  Sc4       1.0  0.63400  0.42900  0.87800  1.0000
  Sr  Sr1       1.0  0.18500  0.12100  0.85000  1.0000
  Sr  Sr2       1.0  0.31500  0.62100  0.65000  1.0000
  Sr  Sr3       1.0  0.81500  0.87900  0.15000  1.0000
  Sr  Sr4       1.0  0.68500  0.37900  0.35000  1.0000
  Sr  Sr5       1.0  0.15600  0.05710  0.11900  1.0000
  Sr  Sr6       1.0  0.34400  0.55700  0.38100  1.0000
  Sr  Sr7       1.0  0.84400  0.94300  0.88100  1.0000
  Sr  Sr8       1.0  0.65600  0.44300  0.61900  1.0000
