data_image0
_chemical_formula_structural       Ga4Li4S8
_chemical_formula_sum              "Ga4 Li4 S8"
_cell_length_a       6.49957
_cell_length_b       7.77232
_cell_length_c       6.208
_cell_angle_alpha    90
_cell_angle_beta     90
_cell_angle_gamma    90

_space_group_name_H-M_alt    "P 1"
_space_group_IT_number       1

loop_
  _space_group_symop_operation_xyz
  'x, y, z'

loop_
  _atom_site_type_symbol
  _atom_site_label
  _atom_site_symmetry_multiplicity
  _atom_site_fract_x
  _atom_site_fract_y
  _atom_site_fract_z
  _atom_site_occupancy
  Ga  Ga1       1.0  0.07670  0.12700  0.62000  1.0000
  Ga  Ga2       1.0  0.92300  0.87300  0.12000  1.0000
  Ga  Ga3       1.0  0.42300  0.62700  0.12000  1.0000
  Ga  Ga4       1.0  0.57700  0.37300  0.62000  1.0000
  Li  Li1       1.0  0.41500  0.12600  0.12000  1.0000
  Li  Li2       1.0  0.58500  0.87400  0.62000  1.0000
  Li  Li3       1.0  0.08460  0.62600  0.62000  1.0000
  Li  Li4       1.0  0.91500  0.37400  0.12000  1.0000
  S   S1        1.0  0.07110  0.11700  0.99000  1.0000
  S   S2        1.0  0.92900  0.88300  0.49000  1.0000
  S   S3        1.0  0.42900  0.61700  0.49000  1.0000
  S   S4        1.0  0.57100  0.38300  0.99000  1.0000
  S   S5        1.0  0.08950  0.63100  0.00423  1.0000
  S   S6        1.0  0.91100  0.36900  0.50400  1.0000
  S   S7        1.0  0.41100  0.13100  0.50400  1.0000
  S   S8        1.0  0.58900  0.86900  0.00423  1.0000
