data_image0
_chemical_formula_structural       B12Li24O36Y4
_chemical_formula_sum              "B12 Li24 O36 Y4"
_cell_length_a       6.98595
_cell_length_b       16.1055
_cell_length_c       6.31885
_cell_angle_alpha    90
_cell_angle_beta     108.443
_cell_angle_gamma    90

_space_group_name_H-M_alt    "P 1"
_space_group_IT_number       1

loop_
  _space_group_symop_operation_xyz
  'x, y, z'

loop_
  _atom_site_type_symbol
  _atom_site_label
  _atom_site_symmetry_multiplicity
  _atom_site_fract_x
  _atom_site_fract_y
  _atom_site_fract_z
  _atom_site_occupancy
  B   B1        1.0  0.49500  0.11900  0.86200  1.0000
  B   B2        1.0  0.50500  0.61900  0.63800  1.0000
  B   B3        1.0  0.50500  0.88100  0.13800  1.0000
  B   B4        1.0  0.49500  0.38100  0.36200  1.0000
  B   B5        1.0  0.12500  0.36700  0.67500  1.0000
  B   B6        1.0  0.87500  0.86700  0.82500  1.0000
  B   B7        1.0  0.87500  0.63300  0.32500  1.0000
  B   B8        1.0  0.12500  0.13300  0.17500  1.0000
  B   B9        1.0  0.73800  0.38300  0.00467  1.0000
  B   B10       1.0  0.26200  0.88300  0.49500  1.0000
  B   B11       1.0  0.26200  0.61700  0.99500  1.0000
  B   B12       1.0  0.73800  0.11700  0.50500  1.0000
  Li  Li1       1.0  0.12500  0.98000  0.73900  1.0000
  Li  Li2       1.0  0.87500  0.48000  0.76100  1.0000
  Li  Li3       1.0  0.87500  0.02030  0.26100  1.0000
  Li  Li4       1.0  0.12500  0.52000  0.23900  1.0000
  Li  Li5       1.0  0.90400  0.43700  0.38100  1.0000
  Li  Li6       1.0  0.09590  0.93700  0.11900  1.0000
  Li  Li7       1.0  0.09590  0.56300  0.61900  1.0000
  Li  Li8       1.0  0.90400  0.06330  0.88100  1.0000
  Li  Li9       1.0  0.31700  0.03430  0.48700  1.0000
  Li  Li10      1.0  0.68300  0.53400  0.01260  1.0000
  Li  Li11      1.0  0.68300  0.96600  0.51300  1.0000
  Li  Li12      1.0  0.31700  0.46600  0.98700  1.0000
  Li  Li13      1.0  0.41400  0.02850  0.13100  1.0000
  Li  Li14      1.0  0.58600  0.52800  0.36900  1.0000
  Li  Li15      1.0  0.58600  0.97200  0.86900  1.0000
  Li  Li16      1.0  0.41400  0.47200  0.63100  1.0000
  Li  Li17      1.0  0.47600  0.20300  0.48100  1.0000
  Li  Li18      1.0  0.52400  0.70300  0.01870  1.0000
  Li  Li19      1.0  0.52400  0.79700  0.51900  1.0000
  Li  Li20      1.0  0.47600  0.29700  0.98100  1.0000
  Li  Li21      1.0  0.75200  0.29200  0.38000  1.0000
  Li  Li22      1.0  0.24800  0.79200  0.12000  1.0000
  Li  Li23      1.0  0.24800  0.70800  0.62000  1.0000
  Li  Li24      1.0  0.75200  0.20800  0.88000  1.0000
  O   O1        1.0  0.68200  0.08970  0.97600  1.0000
  O   O2        1.0  0.31800  0.59000  0.52400  1.0000
  O   O3        1.0  0.31800  0.91000  0.02410  1.0000
  O   O4        1.0  0.68200  0.41000  0.47600  1.0000
  O   O5        1.0  0.46100  0.20100  0.79600  1.0000
  O   O6        1.0  0.53900  0.70100  0.70400  1.0000
  O   O7        1.0  0.53900  0.79900  0.20400  1.0000
  O   O8        1.0  0.46100  0.29900  0.29600  1.0000
  O   O9        1.0  0.32700  0.43200  0.30300  1.0000
  O   O10       1.0  0.67300  0.93200  0.19700  1.0000
  O   O11       1.0  0.67300  0.56800  0.69700  1.0000
  O   O12       1.0  0.32700  0.06770  0.80300  1.0000
  O   O13       1.0  0.55300  0.41900  0.92300  1.0000
  O   O14       1.0  0.44700  0.91900  0.57700  1.0000
  O   O15       1.0  0.44700  0.58100  0.07730  1.0000
  O   O16       1.0  0.55300  0.08110  0.42300  1.0000
  O   O17       1.0  0.76500  0.20000  0.56500  1.0000
  O   O18       1.0  0.23500  0.70000  0.93500  1.0000
  O   O19       1.0  0.23500  0.80000  0.43500  1.0000
  O   O20       1.0  0.76500  0.30000  0.06490  1.0000
  O   O21       1.0  0.91500  0.42900  0.05160  1.0000
  O   O22       1.0  0.08530  0.92900  0.44800  1.0000
  O   O23       1.0  0.08530  0.57100  0.94800  1.0000
  O   O24       1.0  0.91500  0.07130  0.55200  1.0000
  O   O25       1.0  0.19400  0.32100  0.86400  1.0000
  O   O26       1.0  0.80600  0.82100  0.63600  1.0000
  O   O27       1.0  0.80600  0.67900  0.13600  1.0000
  O   O28       1.0  0.19400  0.17900  0.36400  1.0000
  O   O29       1.0  0.03880  0.17800  0.98300  1.0000
  O   O30       1.0  0.96100  0.67800  0.51700  1.0000
  O   O31       1.0  0.96100  0.82200  0.01680  1.0000
  O   O32       1.0  0.03880  0.32200  0.48300  1.0000
  O   O33       1.0  0.13300  0.45000  0.67000  1.0000
  O   O34       1.0  0.86700  0.95000  0.83000  1.0000
  O   O35       1.0  0.86700  0.55000  0.33000  1.0000
  O   O36       1.0  0.13300  0.04960  0.17000  1.0000
  Y   Y1        1.0  0.11600  0.19000  0.67200  1.0000
  Y   Y2        1.0  0.88400  0.69000  0.82800  1.0000
  Y   Y3        1.0  0.88400  0.81000  0.32800  1.0000
  Y   Y4        1.0  0.11600  0.31000  0.17200  1.0000
