data_image0
_chemical_formula_structural       Ni8Si14Ti8
_chemical_formula_sum              "Ni8 Si14 Ti8"
_cell_length_a       9.19218
_cell_length_b       9.19218
_cell_length_c       9.19218
_cell_angle_alpha    94.1223
_cell_angle_beta     94.1223
_cell_angle_gamma    148.896

_space_group_name_H-M_alt    "P 1"
_space_group_IT_number       1

loop_
  _space_group_symop_operation_xyz
  'x, y, z'

loop_
  _atom_site_type_symbol
  _atom_site_label
  _atom_site_symmetry_multiplicity
  _atom_site_fract_x
  _atom_site_fract_y
  _atom_site_fract_z
  _atom_site_occupancy
  Ni  Ni1       1.0  0.89900  0.39900  0.79800  1.0000
  Ni  Ni2       1.0  0.60100  0.10100  0.20200  1.0000
  Ni  Ni3       1.0  0.10100  0.89900  0.50000  1.0000
  Ni  Ni4       1.0  0.39900  0.60100  0.50000  1.0000
  Ni  Ni5       1.0  0.10100  0.60100  0.20200  1.0000
  Ni  Ni6       1.0  0.39900  0.89900  0.79800  1.0000
  Ni  Ni7       1.0  0.89900  0.10100  0.50000  1.0000
  Ni  Ni8       1.0  0.60100  0.39900  0.50000  1.0000
  Si  Si1       1.0  0.50000  0.90700  0.40700  1.0000
  Si  Si2       1.0  0.50000  0.09340  0.59300  1.0000
  Si  Si3       1.0  0.09340  0.50000  0.59300  1.0000
  Si  Si4       1.0  0.90700  0.50000  0.40700  1.0000
  Si  Si5       1.0  0.00000  0.28800  0.28800  1.0000
  Si  Si6       1.0  0.00000  0.71200  0.71200  1.0000
  Si  Si7       1.0  0.71200  0.00000  0.71200  1.0000
  Si  Si8       1.0  0.28800  0.00000  0.28800  1.0000
  Si  Si9       1.0  0.29600  0.29600  0.59200  1.0000
  Si  Si10      1.0  0.70400  0.70400  0.40800  1.0000
  Si  Si11      1.0  0.70400  0.29600  0.00001  1.0000
  Si  Si12      1.0  0.29600  0.70400  0.00000  1.0000
  Si  Si13      1.0  0.24900  0.24900  0.00000  1.0000
  Si  Si14      1.0  0.75100  0.75100  0.00000  1.0000
  Ti  Ti1       1.0  0.13400  0.13400  0.26800  1.0000
  Ti  Ti2       1.0  0.86600  0.86600  0.73200  1.0000
  Ti  Ti3       1.0  0.86600  0.13400  0.00000  1.0000
  Ti  Ti4       1.0  0.13400  0.86600  0.00002  1.0000
  Ti  Ti5       1.0  0.50000  0.69000  0.19000  1.0000
  Ti  Ti6       1.0  0.50000  0.31000  0.81000  1.0000
  Ti  Ti7       1.0  0.31000  0.50000  0.81000  1.0000
  Ti  Ti8       1.0  0.69000  0.50000  0.19000  1.0000
