data_image0
_chemical_formula_structural       Mo4Na2O26P6
_chemical_formula_sum              "Mo4 Na2 O26 P6"
_cell_length_a       6.25898
_cell_length_b       7.11594
_cell_length_c       10.3079
_cell_angle_alpha    73.794
_cell_angle_beta     83.6659
_cell_angle_gamma    78.5819

_space_group_name_H-M_alt    "P 1"
_space_group_IT_number       1

loop_
  _space_group_symop_operation_xyz
  'x, y, z'

loop_
  _atom_site_type_symbol
  _atom_site_label
  _atom_site_symmetry_multiplicity
  _atom_site_fract_x
  _atom_site_fract_y
  _atom_site_fract_z
  _atom_site_occupancy
  Mo  Mo1       1.0  0.24600  0.17800  0.58600  1.0000
  Mo  Mo2       1.0  0.75500  0.82200  0.41400  1.0000
  Mo  Mo3       1.0  0.24400  0.23700  0.06230  1.0000
  Mo  Mo4       1.0  0.75600  0.76300  0.93800  1.0000
  Na  Na1       1.0  0.62400  0.40400  0.30300  1.0000
  Na  Na2       1.0  0.37600  0.59600  0.69700  1.0000
  O   O1        1.0  0.22800  0.69100  0.24500  1.0000
  O   O2        1.0  0.77200  0.30900  0.75500  1.0000
  O   O3        1.0  0.11100  0.45100  0.64400  1.0000
  O   O4        1.0  0.88900  0.54900  0.35600  1.0000
  O   O5        1.0  0.27300  0.34900  0.39300  1.0000
  O   O6        1.0  0.72700  0.65100  0.60700  1.0000
  O   O7        1.0  0.52600  0.27400  0.59900  1.0000
  O   O8        1.0  0.47500  0.72600  0.40100  1.0000
  O   O9        1.0  0.18900  0.08520  0.78800  1.0000
  O   O10       1.0  0.81100  0.91500  0.21200  1.0000
  O   O11       1.0  0.93100  0.20100  0.54700  1.0000
  O   O12       1.0  0.06850  0.79900  0.45300  1.0000
  O   O13       1.0  0.33100  0.93700  0.58400  1.0000
  O   O14       1.0  0.66900  0.06300  0.41600  1.0000
  O   O15       1.0  0.11500  0.43900  0.16400  1.0000
  O   O16       1.0  0.88500  0.56100  0.83600  1.0000
  O   O17       1.0  0.93100  0.22400  0.05690  1.0000
  O   O18       1.0  0.06940  0.77600  0.94300  1.0000
  O   O19       1.0  0.23800  0.04000  0.26400  1.0000
  O   O20       1.0  0.76200  0.96000  0.73600  1.0000
  O   O21       1.0  0.29900  0.97000  0.02490  1.0000
  O   O22       1.0  0.70100  0.02960  0.97500  1.0000
  O   O23       1.0  0.54200  0.23900  0.13200  1.0000
  O   O24       1.0  0.45800  0.76100  0.86800  1.0000
  O   O25       1.0  0.31100  0.37600  0.90600  1.0000
  O   O26       1.0  0.68900  0.62400  0.09430  1.0000
  P   P1        1.0  0.11600  0.49900  0.29300  1.0000
  P   P2        1.0  0.88500  0.50100  0.70700  1.0000
  P   P3        1.0  0.74900  0.10000  0.09480  1.0000
  P   P4        1.0  0.25100  0.90000  0.90500  1.0000
  P   P5        1.0  0.74600  0.17300  0.65900  1.0000
  P   P6        1.0  0.25400  0.82700  0.34100  1.0000
