data_image0
_chemical_formula_structural       B2N4Nd3
_chemical_formula_sum              "B2 N4 Nd3"
_cell_length_a       3.52874
_cell_length_b       6.27897
_cell_length_c       6.49494
_cell_angle_alpha    118.906
_cell_angle_beta     105.763
_cell_angle_gamma    90

_space_group_name_H-M_alt    "P 1"
_space_group_IT_number       1

loop_
  _space_group_symop_operation_xyz
  'x, y, z'

loop_
  _atom_site_type_symbol
  _atom_site_label
  _atom_site_symmetry_multiplicity
  _atom_site_fract_x
  _atom_site_fract_y
  _atom_site_fract_z
  _atom_site_occupancy
  B   B1        1.0  0.50000  0.35700  0.00000  1.0000
  B   B2        1.0  0.50000  0.64300  0.00000  1.0000
  N   N1        1.0  0.61900  0.36300  0.23800  1.0000
  N   N2        1.0  0.61900  0.87600  0.23800  1.0000
  N   N3        1.0  0.38100  0.12400  0.76200  1.0000
  N   N4        1.0  0.38100  0.63700  0.76200  1.0000
  Nd  Nd1       1.0  0.00000  0.00000  0.00000  1.0000
  Nd  Nd2       1.0  0.20200  0.70200  0.40300  1.0000
  Nd  Nd3       1.0  0.79800  0.29800  0.59700  1.0000
