data_image0
_chemical_formula_structural       Ca4Ge4O14Zn2
_chemical_formula_sum              "Ca4 Ge4 O14 Zn2"
_cell_length_a       7.90751
_cell_length_b       7.90751
_cell_length_c       5.12677
_cell_angle_alpha    90
_cell_angle_beta     90
_cell_angle_gamma    90

_space_group_name_H-M_alt    "P 1"
_space_group_IT_number       1

loop_
  _space_group_symop_operation_xyz
  'x, y, z'

loop_
  _atom_site_type_symbol
  _atom_site_label
  _atom_site_symmetry_multiplicity
  _atom_site_fract_x
  _atom_site_fract_y
  _atom_site_fract_z
  _atom_site_occupancy
  Ca  Ca1       1.0  0.33500  0.16500  0.50600  1.0000
  Ca  Ca2       1.0  0.66500  0.83500  0.50600  1.0000
  Ca  Ca3       1.0  0.83500  0.33500  0.49400  1.0000
  Ca  Ca4       1.0  0.16500  0.66500  0.49400  1.0000
  Ge  Ge1       1.0  0.14600  0.35400  0.94200  1.0000
  Ge  Ge2       1.0  0.85400  0.64600  0.94200  1.0000
  Ge  Ge3       1.0  0.64600  0.14600  0.05840  1.0000
  Ge  Ge4       1.0  0.35400  0.85400  0.05840  1.0000
  O   O1        1.0  0.08520  0.17200  0.76600  1.0000
  O   O2        1.0  0.91500  0.82800  0.76600  1.0000
  O   O3        1.0  0.58500  0.32800  0.23400  1.0000
  O   O4        1.0  0.41500  0.67200  0.23400  1.0000
  O   O5        1.0  0.67200  0.58500  0.76600  1.0000
  O   O6        1.0  0.32800  0.41500  0.76600  1.0000
  O   O7        1.0  0.82800  0.08520  0.23400  1.0000
  O   O8        1.0  0.17200  0.91500  0.23400  1.0000
  O   O9        1.0  0.14000  0.36000  0.27800  1.0000
  O   O10       1.0  0.86000  0.64000  0.27800  1.0000
  O   O11       1.0  0.64000  0.14000  0.72200  1.0000
  O   O12       1.0  0.36000  0.86000  0.72200  1.0000
  O   O13       1.0  0.50000  0.00000  0.20800  1.0000
  O   O14       1.0  0.00000  0.50000  0.79200  1.0000
  Zn  Zn1       1.0  0.00000  0.00000  0.00000  1.0000
  Zn  Zn2       1.0  0.50000  0.50000  0.00000  1.0000
