data_image0
_chemical_formula_structural       Cu6Ho2O16Pb4Sr4
_chemical_formula_sum              "Cu6 Ho2 O16 Pb4 Sr4"
_cell_length_a       5.32495
_cell_length_b       5.3584
_cell_length_c       15.5529
_cell_angle_alpha    90.279
_cell_angle_beta     90.6897
_cell_angle_gamma    90.0286

_space_group_name_H-M_alt    "P 1"
_space_group_IT_number       1

loop_
  _space_group_symop_operation_xyz
  'x, y, z'

loop_
  _atom_site_type_symbol
  _atom_site_label
  _atom_site_symmetry_multiplicity
  _atom_site_fract_x
  _atom_site_fract_y
  _atom_site_fract_z
  _atom_site_occupancy
  Cu  Cu1       1.0  0.00257  0.50200  0.10500  1.0000
  Cu  Cu2       1.0  0.99700  0.49800  0.89500  1.0000
  Cu  Cu3       1.0  0.50000  0.50000  0.50000  1.0000
  Cu  Cu4       1.0  0.00000  0.00000  0.50000  1.0000
  Cu  Cu5       1.0  0.50200  0.00111  0.10500  1.0000
  Cu  Cu6       1.0  0.49800  0.99900  0.89500  1.0000
  Ho  Ho1       1.0  0.50000  0.50000  1.00000  1.0000
  Ho  Ho2       1.0  0.00000  0.00000  0.00000  1.0000
  O   O1        1.0  0.75200  0.25100  0.09340  1.0000
  O   O2        1.0  0.24800  0.74900  0.90700  1.0000
  O   O3        1.0  0.75200  0.75100  0.09060  1.0000
  O   O4        1.0  0.24800  0.24900  0.90900  1.0000
  O   O5        1.0  0.25200  0.75100  0.09050  1.0000
  O   O6        1.0  0.74800  0.24900  0.90900  1.0000
  O   O7        1.0  0.25200  0.25100  0.09340  1.0000
  O   O8        1.0  0.74800  0.74900  0.90700  1.0000
  O   O9        1.0  0.54700  0.44300  0.38400  1.0000
  O   O10       1.0  0.45300  0.55700  0.61600  1.0000
  O   O11       1.0  0.04780  0.07170  0.38500  1.0000
  O   O12       1.0  0.95200  0.92800  0.61500  1.0000
  O   O13       1.0  0.00935  0.52000  0.25000  1.0000
  O   O14       1.0  0.99100  0.48000  0.75000  1.0000
  O   O15       1.0  0.50900  0.99000  0.25000  1.0000
  O   O16       1.0  0.49100  0.01050  0.75000  1.0000
  Pb  Pb1       1.0  0.50100  0.00296  0.38900  1.0000
  Pb  Pb2       1.0  0.49900  0.99700  0.61100  1.0000
  Pb  Pb3       1.0  0.99900  0.50700  0.39000  1.0000
  Pb  Pb4       1.0  0.00082  0.49300  0.61000  1.0000
  Sr  Sr1       1.0  0.50500  0.50300  0.22000  1.0000
  Sr  Sr2       1.0  0.49500  0.49700  0.78000  1.0000
  Sr  Sr3       1.0  0.00554  0.00476  0.22000  1.0000
  Sr  Sr4       1.0  0.99400  0.99500  0.78000  1.0000
