data_image0
_chemical_formula_structural       F3H6O3V
_chemical_formula_sum              "F3 H6 O3 V1"
_cell_length_a       4.68754
_cell_length_b       4.68754
_cell_length_c       4.68754
_cell_angle_alpha    96.5224
_cell_angle_beta     96.5224
_cell_angle_gamma    96.5224

_space_group_name_H-M_alt    "P 1"
_space_group_IT_number       1

loop_
  _space_group_symop_operation_xyz
  'x, y, z'

loop_
  _atom_site_type_symbol
  _atom_site_label
  _atom_site_symmetry_multiplicity
  _atom_site_fract_x
  _atom_site_fract_y
  _atom_site_fract_z
  _atom_site_occupancy
  F   F1        1.0  0.28900  0.90000  0.28900  1.0000
  F   F2        1.0  0.28900  0.28900  0.90000  1.0000
  F   F3        1.0  0.90000  0.28900  0.28900  1.0000
  H   H1        1.0  0.53500  0.77400  0.19600  1.0000
  H   H2        1.0  0.19600  0.53500  0.77400  1.0000
  H   H3        1.0  0.77400  0.53500  0.19600  1.0000
  H   H4        1.0  0.53500  0.19600  0.77400  1.0000
  H   H5        1.0  0.19600  0.77400  0.53500  1.0000
  H   H6        1.0  0.77400  0.19600  0.53500  1.0000
  O   O1        1.0  0.11200  0.70800  0.70800  1.0000
  O   O2        1.0  0.70800  0.70800  0.11200  1.0000
  O   O3        1.0  0.70800  0.11200  0.70800  1.0000
  V   V1        1.0  0.99600  0.99600  0.99600  1.0000
