data_image0
_chemical_formula_structural       H72N36Ni18
_chemical_formula_sum              "H72 N36 Ni18"
_cell_length_a       10.1136
_cell_length_b       10.1136
_cell_length_c       10.1136
_cell_angle_alpha    90
_cell_angle_beta     90
_cell_angle_gamma    90

_space_group_name_H-M_alt    "P 1"
_space_group_IT_number       1

loop_
  _space_group_symop_operation_xyz
  'x, y, z'

loop_
  _atom_site_type_symbol
  _atom_site_label
  _atom_site_symmetry_multiplicity
  _atom_site_fract_x
  _atom_site_fract_y
  _atom_site_fract_z
  _atom_site_occupancy
  H   H1        1.0  0.22000  0.23300  0.39900  1.0000
  H   H2        1.0  0.78000  0.76700  0.39900  1.0000
  H   H3        1.0  0.22000  0.76700  0.60100  1.0000
  H   H4        1.0  0.78000  0.23300  0.60100  1.0000
  H   H5        1.0  0.39900  0.22000  0.23300  1.0000
  H   H6        1.0  0.23300  0.39900  0.22000  1.0000
  H   H7        1.0  0.60100  0.78000  0.23300  1.0000
  H   H8        1.0  0.76700  0.39900  0.78000  1.0000
  H   H9        1.0  0.39900  0.78000  0.76700  1.0000
  H   H10       1.0  0.76700  0.60100  0.22000  1.0000
  H   H11       1.0  0.60100  0.22000  0.76700  1.0000
  H   H12       1.0  0.23300  0.60100  0.78000  1.0000
  H   H13       1.0  0.78000  0.76700  0.60100  1.0000
  H   H14       1.0  0.22000  0.23300  0.60100  1.0000
  H   H15       1.0  0.78000  0.23300  0.39900  1.0000
  H   H16       1.0  0.22000  0.76700  0.39900  1.0000
  H   H17       1.0  0.60100  0.78000  0.76700  1.0000
  H   H18       1.0  0.76700  0.60100  0.78000  1.0000
  H   H19       1.0  0.39900  0.22000  0.76700  1.0000
  H   H20       1.0  0.23300  0.60100  0.22000  1.0000
  H   H21       1.0  0.60100  0.22000  0.23300  1.0000
  H   H22       1.0  0.23300  0.39900  0.78000  1.0000
  H   H23       1.0  0.39900  0.78000  0.23300  1.0000
  H   H24       1.0  0.76700  0.39900  0.22000  1.0000
  H   H25       1.0  0.50000  0.33500  0.08010  1.0000
  H   H26       1.0  0.50000  0.66500  0.08010  1.0000
  H   H27       1.0  0.50000  0.66500  0.92000  1.0000
  H   H28       1.0  0.50000  0.33500  0.92000  1.0000
  H   H29       1.0  0.08010  0.50000  0.33500  1.0000
  H   H30       1.0  0.33500  0.08010  0.50000  1.0000
  H   H31       1.0  0.92000  0.50000  0.33500  1.0000
  H   H32       1.0  0.66500  0.08010  0.50000  1.0000
  H   H33       1.0  0.08010  0.50000  0.66500  1.0000
  H   H34       1.0  0.66500  0.92000  0.50000  1.0000
  H   H35       1.0  0.92000  0.50000  0.66500  1.0000
  H   H36       1.0  0.33500  0.92000  0.50000  1.0000
  H   H37       1.0  0.10500  0.23500  0.28400  1.0000
  H   H38       1.0  0.89500  0.76500  0.28400  1.0000
  H   H39       1.0  0.10500  0.76500  0.71600  1.0000
  H   H40       1.0  0.89500  0.23500  0.71600  1.0000
  H   H41       1.0  0.28400  0.10500  0.23500  1.0000
  H   H42       1.0  0.23500  0.28400  0.10500  1.0000
  H   H43       1.0  0.71600  0.89500  0.23500  1.0000
  H   H44       1.0  0.76500  0.28400  0.89500  1.0000
  H   H45       1.0  0.28400  0.89500  0.76500  1.0000
  H   H46       1.0  0.76500  0.71600  0.10500  1.0000
  H   H47       1.0  0.71600  0.10500  0.76500  1.0000
  H   H48       1.0  0.23500  0.71600  0.89500  1.0000
  H   H49       1.0  0.89500  0.76500  0.71600  1.0000
  H   H50       1.0  0.10500  0.23500  0.71600  1.0000
  H   H51       1.0  0.89500  0.23500  0.28400  1.0000
  H   H52       1.0  0.10500  0.76500  0.28400  1.0000
  H   H53       1.0  0.71600  0.89500  0.76500  1.0000
  H   H54       1.0  0.76500  0.71600  0.89500  1.0000
  H   H55       1.0  0.28400  0.10500  0.76500  1.0000
  H   H56       1.0  0.23500  0.71600  0.10500  1.0000
  H   H57       1.0  0.71600  0.10500  0.23500  1.0000
  H   H58       1.0  0.23500  0.28400  0.89500  1.0000
  H   H59       1.0  0.28400  0.89500  0.23500  1.0000
  H   H60       1.0  0.76500  0.28400  0.10500  1.0000
  H   H61       1.0  0.00000  0.08230  0.17900  1.0000
  H   H62       1.0  0.00000  0.91800  0.17900  1.0000
  H   H63       1.0  0.00000  0.91800  0.82100  1.0000
  H   H64       1.0  0.00000  0.08230  0.82100  1.0000
  H   H65       1.0  0.17900  0.00000  0.08230  1.0000
  H   H66       1.0  0.08230  0.17900  0.00000  1.0000
  H   H67       1.0  0.82100  0.00000  0.08230  1.0000
  H   H68       1.0  0.91800  0.17900  0.00000  1.0000
  H   H69       1.0  0.17900  0.00000  0.91800  1.0000
  H   H70       1.0  0.91800  0.82100  0.00000  1.0000
  H   H71       1.0  0.82100  0.00000  0.91800  1.0000
  H   H72       1.0  0.08230  0.82100  0.00000  1.0000
  N   N1        1.0  0.23900  0.00000  0.00000  1.0000
  N   N2        1.0  0.76100  0.00000  0.00000  1.0000
  N   N3        1.0  0.00000  0.23900  0.00000  1.0000
  N   N4        1.0  0.00000  0.00000  0.23900  1.0000
  N   N5        1.0  0.00000  0.76100  0.00000  1.0000
  N   N6        1.0  0.00000  0.00000  0.76100  1.0000
  N   N7        1.0  0.13300  0.18900  0.37100  1.0000
  N   N8        1.0  0.86700  0.81100  0.37100  1.0000
  N   N9        1.0  0.13300  0.81100  0.62900  1.0000
  N   N10       1.0  0.86700  0.18900  0.62900  1.0000
  N   N11       1.0  0.37100  0.13300  0.18900  1.0000
  N   N12       1.0  0.18900  0.37100  0.13300  1.0000
  N   N13       1.0  0.62900  0.86700  0.18900  1.0000
  N   N14       1.0  0.81100  0.37100  0.86700  1.0000
  N   N15       1.0  0.37100  0.86700  0.81100  1.0000
  N   N16       1.0  0.81100  0.62900  0.13300  1.0000
  N   N17       1.0  0.62900  0.13300  0.81100  1.0000
  N   N18       1.0  0.18900  0.62900  0.86700  1.0000
  N   N19       1.0  0.86700  0.81100  0.62900  1.0000
  N   N20       1.0  0.13300  0.18900  0.62900  1.0000
  N   N21       1.0  0.86700  0.18900  0.37100  1.0000
  N   N22       1.0  0.13300  0.81100  0.37100  1.0000
  N   N23       1.0  0.62900  0.86700  0.81100  1.0000
  N   N24       1.0  0.81100  0.62900  0.86700  1.0000
  N   N25       1.0  0.37100  0.13300  0.81100  1.0000
  N   N26       1.0  0.18900  0.62900  0.13300  1.0000
  N   N27       1.0  0.62900  0.13300  0.18900  1.0000
  N   N28       1.0  0.18900  0.37100  0.86700  1.0000
  N   N29       1.0  0.37100  0.86700  0.18900  1.0000
  N   N30       1.0  0.81100  0.37100  0.13300  1.0000
  N   N31       1.0  0.27200  0.00000  0.50000  1.0000
  N   N32       1.0  0.72800  0.00000  0.50000  1.0000
  N   N33       1.0  0.50000  0.27200  0.00000  1.0000
  N   N34       1.0  0.00000  0.50000  0.27200  1.0000
  N   N35       1.0  0.50000  0.72800  0.00000  1.0000
  N   N36       1.0  0.00000  0.50000  0.72800  1.0000
  Ni  Ni1       1.0  0.19800  0.50000  0.00000  1.0000
  Ni  Ni2       1.0  0.80200  0.50000  0.00000  1.0000
  Ni  Ni3       1.0  0.00000  0.19800  0.50000  1.0000
  Ni  Ni4       1.0  0.50000  0.00000  0.19800  1.0000
  Ni  Ni5       1.0  0.00000  0.80200  0.50000  1.0000
  Ni  Ni6       1.0  0.50000  0.00000  0.80200  1.0000
  Ni  Ni7       1.0  0.00000  0.36400  0.14200  1.0000
  Ni  Ni8       1.0  0.00000  0.63600  0.14200  1.0000
  Ni  Ni9       1.0  0.00000  0.63600  0.85800  1.0000
  Ni  Ni10      1.0  0.00000  0.36400  0.85800  1.0000
  Ni  Ni11      1.0  0.14200  0.00000  0.36400  1.0000
  Ni  Ni12      1.0  0.36400  0.14200  0.00000  1.0000
  Ni  Ni13      1.0  0.85800  0.00000  0.36400  1.0000
  Ni  Ni14      1.0  0.63600  0.14200  0.00000  1.0000
  Ni  Ni15      1.0  0.14200  0.00000  0.63600  1.0000
  Ni  Ni16      1.0  0.63600  0.85800  0.00000  1.0000
  Ni  Ni17      1.0  0.85800  0.00000  0.63600  1.0000
  Ni  Ni18      1.0  0.36400  0.85800  0.00000  1.0000
