data_image0
_chemical_formula_structural       Pd3Ta4Te16
_chemical_formula_sum              "Pd3 Ta4 Te16"
_cell_length_a       15.506
_cell_length_b       10.9777
_cell_length_c       15.506
_cell_angle_alpha    97.0115
_cell_angle_beta     166.05
_cell_angle_gamma    85.388

_space_group_name_H-M_alt    "P 1"
_space_group_IT_number       1

loop_
  _space_group_symop_operation_xyz
  'x, y, z'

loop_
  _atom_site_type_symbol
  _atom_site_label
  _atom_site_symmetry_multiplicity
  _atom_site_fract_x
  _atom_site_fract_y
  _atom_site_fract_z
  _atom_site_occupancy
  Pd  Pd1       1.0  0.67200  0.65200  0.97900  1.0000
  Pd  Pd2       1.0  0.32800  0.34800  0.02050  1.0000
  Pd  Pd3       1.0  0.50000  0.00000  0.50000  1.0000
  Ta  Ta1       1.0  0.08290  0.31700  0.23400  1.0000
  Ta  Ta2       1.0  0.91700  0.68300  0.76600  1.0000
  Ta  Ta3       1.0  0.20700  0.83200  0.62500  1.0000
  Ta  Ta4       1.0  0.79300  0.16800  0.37500  1.0000
  Te  Te1       1.0  0.19000  0.97100  0.78100  1.0000
  Te  Te2       1.0  0.81000  0.02900  0.21900  1.0000
  Te  Te3       1.0  0.62300  0.26000  0.63700  1.0000
  Te  Te4       1.0  0.37700  0.74000  0.36300  1.0000
  Te  Te5       1.0  0.95800  0.04210  0.08400  1.0000
  Te  Te6       1.0  0.04180  0.95800  0.91600  1.0000
  Te  Te7       1.0  0.47900  0.22800  0.74900  1.0000
  Te  Te8       1.0  0.52100  0.77200  0.25100  1.0000
  Te  Te9       1.0  0.07570  0.47000  0.39400  1.0000
  Te  Te10      1.0  0.92400  0.53000  0.60600  1.0000
  Te  Te11      1.0  0.69000  0.51000  0.82100  1.0000
  Te  Te12      1.0  0.31000  0.49000  0.17900  1.0000
  Te  Te13      1.0  0.27900  0.80200  0.52300  1.0000
  Te  Te14      1.0  0.72100  0.19800  0.47700  1.0000
  Te  Te15      1.0  0.59700  0.68100  0.08450  1.0000
  Te  Te16      1.0  0.40300  0.31900  0.91600  1.0000
