data_image0
_chemical_formula_structural       Cu4Er2Ga2O14Sr4
_chemical_formula_sum              "Cu4 Er2 Ga2 O14 Sr4"
_cell_length_a       11.8785
_cell_length_b       11.8785
_cell_length_c       11.8785
_cell_angle_alpha    37.03
_cell_angle_beta     153.851
_cell_angle_gamma    154.246

_space_group_name_H-M_alt    "P 1"
_space_group_IT_number       1

loop_
  _space_group_symop_operation_xyz
  'x, y, z'

loop_
  _atom_site_type_symbol
  _atom_site_label
  _atom_site_symmetry_multiplicity
  _atom_site_fract_x
  _atom_site_fract_y
  _atom_site_fract_z
  _atom_site_occupancy
  Cu  Cu1       1.0  0.49800  0.92700  0.42800  1.0000
  Cu  Cu2       1.0  0.49900  0.07020  0.57200  1.0000
  Cu  Cu3       1.0  0.49800  0.57000  0.07160  1.0000
  Cu  Cu4       1.0  0.49900  0.42700  0.92800  1.0000
  Er  Er1       1.0  0.99900  0.49900  0.50000  1.0000
  Er  Er2       1.0  0.99900  0.99900  0.00000  1.0000
  Ga  Ga1       1.0  0.47200  0.78900  0.18300  1.0000
  Ga  Ga2       1.0  0.60500  0.28900  0.81700  1.0000
  O   O1        1.0  0.43200  0.29800  0.78500  1.0000
  O   O2        1.0  0.51300  0.64700  0.21500  1.0000
  O   O3        1.0  0.43200  0.14700  0.63400  1.0000
  O   O4        1.0  0.51300  0.79800  0.36600  1.0000
  O   O5        1.0  0.99800  0.18800  0.68700  1.0000
  O   O6        1.0  0.50100  0.31100  0.31300  1.0000
  O   O7        1.0  0.99800  0.81100  0.31000  1.0000
  O   O8        1.0  0.50100  0.68800  0.69000  1.0000
  O   O9        1.0  0.99800  0.68500  0.18600  1.0000
  O   O10       1.0  0.49900  0.81200  0.81400  1.0000
  O   O11       1.0  0.99800  0.31200  0.81400  1.0000
  O   O12       1.0  0.49900  0.18500  0.18600  1.0000
  O   O13       1.0  0.00501  0.64600  0.85900  1.0000
  O   O14       1.0  0.78800  0.14600  0.14100  1.0000
  Sr  Sr1       1.0  0.01020  0.34900  0.36100  1.0000
  Sr  Sr2       1.0  0.98800  0.64900  0.63900  1.0000
  Sr  Sr3       1.0  0.01020  0.14900  0.16100  1.0000
  Sr  Sr4       1.0  0.98800  0.84900  0.83900  1.0000
