data_image0
_chemical_formula_structural       Cu4Dy2Ga2O14Sr4
_chemical_formula_sum              "Cu4 Dy2 Ga2 O14 Sr4"
_cell_length_a       11.8869
_cell_length_b       11.8817
_cell_length_c       11.8801
_cell_angle_alpha    37.1538
_cell_angle_beta     153.77
_cell_angle_gamma    154.175

_space_group_name_H-M_alt    "P 1"
_space_group_IT_number       1

loop_
  _space_group_symop_operation_xyz
  'x, y, z'

loop_
  _atom_site_type_symbol
  _atom_site_label
  _atom_site_symmetry_multiplicity
  _atom_site_fract_x
  _atom_site_fract_y
  _atom_site_fract_z
  _atom_site_occupancy
  Cu  Cu1       1.0  0.49900  0.92600  0.42700  1.0000
  Cu  Cu2       1.0  0.50000  0.07270  0.57300  1.0000
  Cu  Cu3       1.0  0.49900  0.57300  0.07300  1.0000
  Cu  Cu4       1.0  0.50000  0.42600  0.92700  1.0000
  Dy  Dy1       1.0  0.00000  0.50000  0.50000  1.0000
  Dy  Dy2       1.0  0.00000  0.00004  0.00000  1.0000
  Ga  Ga1       1.0  0.47500  0.79200  0.18400  1.0000
  Ga  Ga2       1.0  0.60800  0.29200  0.81700  1.0000
  O   O1        1.0  0.43300  0.30000  0.78300  1.0000
  O   O2        1.0  0.51600  0.64900  0.21600  1.0000
  O   O3        1.0  0.43300  0.14900  0.63300  1.0000
  O   O4        1.0  0.51700  0.80000  0.36700  1.0000
  O   O5        1.0  0.99900  0.18900  0.68700  1.0000
  O   O6        1.0  0.50200  0.31300  0.31400  1.0000
  O   O7        1.0  0.99900  0.81300  0.31100  1.0000
  O   O8        1.0  0.50200  0.68800  0.68900  1.0000
  O   O9        1.0  0.99900  0.68500  0.18500  1.0000
  O   O10       1.0  0.50000  0.81500  0.81500  1.0000
  O   O11       1.0  0.99900  0.31500  0.81500  1.0000
  O   O12       1.0  0.50000  0.18500  0.18500  1.0000
  O   O13       1.0  0.00815  0.64800  0.86100  1.0000
  O   O14       1.0  0.78700  0.14800  0.13900  1.0000
  Sr  Sr1       1.0  0.01270  0.35100  0.36100  1.0000
  Sr  Sr2       1.0  0.99000  0.65100  0.63900  1.0000
  Sr  Sr3       1.0  0.01240  0.15100  0.16100  1.0000
  Sr  Sr4       1.0  0.99000  0.85100  0.83900  1.0000
