data_image0
_chemical_formula_structural       Cu4Eu2Ga2O14Sr4
_chemical_formula_sum              "Cu4 Eu2 Ga2 O14 Sr4"
_cell_length_a       12.0377
_cell_length_b       12.0377
_cell_length_c       12.0377
_cell_angle_alpha    36.3095
_cell_angle_beta     154.354
_cell_angle_gamma    154.735

_space_group_name_H-M_alt    "P 1"
_space_group_IT_number       1

loop_
  _space_group_symop_operation_xyz
  'x, y, z'

loop_
  _atom_site_type_symbol
  _atom_site_label
  _atom_site_symmetry_multiplicity
  _atom_site_fract_x
  _atom_site_fract_y
  _atom_site_fract_z
  _atom_site_occupancy
  Cu  Cu1       1.0  0.49600  0.92200  0.42600  1.0000
  Cu  Cu2       1.0  0.49600  0.07010  0.57400  1.0000
  Cu  Cu3       1.0  0.49600  0.57000  0.07390  1.0000
  Cu  Cu4       1.0  0.49600  0.42200  0.92600  1.0000
  Eu  Eu1       1.0  0.99700  0.49700  0.50000  1.0000
  Eu  Eu2       1.0  0.99700  0.99700  0.00000  1.0000
  Ga  Ga1       1.0  0.47200  0.79200  0.18000  1.0000
  Ga  Ga2       1.0  0.61100  0.29200  0.82000  1.0000
  O   O1        1.0  0.99600  0.18000  0.68100  1.0000
  O   O2        1.0  0.49900  0.31500  0.31900  1.0000
  O   O3        1.0  0.99600  0.81500  0.31600  1.0000
  O   O4        1.0  0.49900  0.68000  0.68400  1.0000
  O   O5        1.0  0.44000  0.29900  0.79100  1.0000
  O   O6        1.0  0.50900  0.64900  0.20900  1.0000
  O   O7        1.0  0.44000  0.14900  0.64100  1.0000
  O   O8        1.0  0.50900  0.79900  0.35900  1.0000
  O   O9        1.0  0.99600  0.67600  0.17900  1.0000
  O   O10       1.0  0.49700  0.81700  0.82100  1.0000
  O   O11       1.0  0.99600  0.31700  0.82000  1.0000
  O   O12       1.0  0.49700  0.17600  0.18000  1.0000
  O   O13       1.0  0.00380  0.65100  0.85300  1.0000
  O   O14       1.0  0.79700  0.15100  0.14700  1.0000
  Sr  Sr1       1.0  0.00641  0.34600  0.36000  1.0000
  Sr  Sr2       1.0  0.98600  0.64600  0.64000  1.0000
  Sr  Sr3       1.0  0.00641  0.14600  0.16000  1.0000
  Sr  Sr4       1.0  0.98600  0.84600  0.84000  1.0000
