data_image0
_chemical_formula_structural       Br4Cu4Se12
_chemical_formula_sum              "Br4 Cu4 Se12"
_cell_length_a       4.44556
_cell_length_b       7.72573
_cell_length_c       14.4174
_cell_angle_alpha    90
_cell_angle_beta     90
_cell_angle_gamma    90

_space_group_name_H-M_alt    "P 1"
_space_group_IT_number       1

loop_
  _space_group_symop_operation_xyz
  'x, y, z'

loop_
  _atom_site_type_symbol
  _atom_site_label
  _atom_site_symmetry_multiplicity
  _atom_site_fract_x
  _atom_site_fract_y
  _atom_site_fract_z
  _atom_site_occupancy
  Br  Br1       1.0  0.50000  0.00000  0.82600  1.0000
  Br  Br2       1.0  0.50000  0.50000  0.32600  1.0000
  Br  Br3       1.0  0.50000  0.00000  0.18900  1.0000
  Br  Br4       1.0  0.50000  0.50000  0.68900  1.0000
  Cu  Cu1       1.0  0.80600  0.75000  0.75800  1.0000
  Cu  Cu2       1.0  0.19400  0.25000  0.75800  1.0000
  Cu  Cu3       1.0  0.19400  0.25000  0.25800  1.0000
  Cu  Cu4       1.0  0.80600  0.75000  0.25800  1.0000
  Se  Se1       1.0  0.88500  0.35600  0.13400  1.0000
  Se  Se2       1.0  0.11500  0.64400  0.13400  1.0000
  Se  Se3       1.0  0.11500  0.85600  0.63400  1.0000
  Se  Se4       1.0  0.88500  0.14400  0.63400  1.0000
  Se  Se5       1.0  0.88500  0.14400  0.38100  1.0000
  Se  Se6       1.0  0.11500  0.85600  0.38100  1.0000
  Se  Se7       1.0  0.11500  0.64400  0.88100  1.0000
  Se  Se8       1.0  0.88500  0.35600  0.88100  1.0000
  Se  Se9       1.0  0.14100  0.22300  0.00764  1.0000
  Se  Se10      1.0  0.85900  0.77700  0.00764  1.0000
  Se  Se11      1.0  0.85900  0.72300  0.50800  1.0000
  Se  Se12      1.0  0.14100  0.27700  0.50800  1.0000
