data_image0
_chemical_formula_structural       I6Na2U
_chemical_formula_sum              "I6 Na2 U1"
_cell_length_a       8.21906
_cell_length_b       8.21906
_cell_length_c       8.21906
_cell_angle_alpha    55.978
_cell_angle_beta     55.978
_cell_angle_gamma    55.978

_space_group_name_H-M_alt    "P 1"
_space_group_IT_number       1

loop_
  _space_group_symop_operation_xyz
  'x, y, z'

loop_
  _atom_site_type_symbol
  _atom_site_label
  _atom_site_symmetry_multiplicity
  _atom_site_fract_x
  _atom_site_fract_y
  _atom_site_fract_z
  _atom_site_occupancy
  I   I1        1.0  0.60300  0.23400  0.90500  1.0000
  I   I2        1.0  0.90500  0.60300  0.23400  1.0000
  I   I3        1.0  0.23400  0.90500  0.60300  1.0000
  I   I4        1.0  0.39700  0.76600  0.09490  1.0000
  I   I5        1.0  0.09490  0.39700  0.76600  1.0000
  I   I6        1.0  0.76600  0.09490  0.39700  1.0000
  Na  Na1       1.0  0.32900  0.32900  0.32900  1.0000
  Na  Na2       1.0  0.67100  0.67100  0.67100  1.0000
  U   U1        1.0  0.00000  0.00000  0.00000  1.0000
