data_image0
_chemical_formula_structural       Ba2Cu2O12Si4
_chemical_formula_sum              "Ba2 Cu2 O12 Si4"
_cell_length_a       7.26351
_cell_length_b       7.26351
_cell_length_c       7.26351
_cell_angle_alpha    121.797
_cell_angle_beta     121.797
_cell_angle_gamma    86.9148

_space_group_name_H-M_alt    "P 1"
_space_group_IT_number       1

loop_
  _space_group_symop_operation_xyz
  'x, y, z'

loop_
  _atom_site_type_symbol
  _atom_site_label
  _atom_site_symmetry_multiplicity
  _atom_site_fract_x
  _atom_site_fract_y
  _atom_site_fract_z
  _atom_site_occupancy
  Ba  Ba1       1.0  0.75000  0.25000  0.50000  1.0000
  Ba  Ba2       1.0  0.25000  0.75000  0.50000  1.0000
  Cu  Cu1       1.0  0.63000  0.63000  0.00000  1.0000
  Cu  Cu2       1.0  0.37000  0.37000  0.00000  1.0000
  O   O1        1.0  0.26800  0.00000  0.26800  1.0000
  O   O2        1.0  0.73200  0.00000  0.73200  1.0000
  O   O3        1.0  0.00000  0.73200  0.73200  1.0000
  O   O4        1.0  0.00000  0.26800  0.26800  1.0000
  O   O5        1.0  0.44100  0.44100  0.61700  1.0000
  O   O6        1.0  0.82300  0.82300  0.38300  1.0000
  O   O7        1.0  0.55900  0.17700  0.00000  1.0000
  O   O8        1.0  0.17700  0.55900  0.00000  1.0000
  O   O9        1.0  0.55900  0.55900  0.38300  1.0000
  O   O10       1.0  0.17700  0.17700  0.61700  1.0000
  O   O11       1.0  0.82300  0.44100  0.00000  1.0000
  O   O12       1.0  0.44100  0.82300  0.00000  1.0000
  Si  Si1       1.0  0.22800  0.22800  0.45600  1.0000
  Si  Si2       1.0  0.77200  0.77200  0.54400  1.0000
  Si  Si3       1.0  0.77200  0.22800  0.00000  1.0000
  Si  Si4       1.0  0.22800  0.77200  0.00000  1.0000
