data_image0
_chemical_formula_structural       B16H24Li8O40
_chemical_formula_sum              "B16 H24 Li8 O40"
_cell_length_a       9.18396
_cell_length_b       7.96422
_cell_length_c       9.08964
_cell_angle_alpha    90
_cell_angle_beta     90
_cell_angle_gamma    90

_space_group_name_H-M_alt    "P 1"
_space_group_IT_number       1

loop_
  _space_group_symop_operation_xyz
  'x, y, z'

loop_
  _atom_site_type_symbol
  _atom_site_label
  _atom_site_symmetry_multiplicity
  _atom_site_fract_x
  _atom_site_fract_y
  _atom_site_fract_z
  _atom_site_occupancy
  B   B1        1.0  0.25200  0.25000  0.75000  1.0000
  B   B2        1.0  0.24800  0.75000  0.75000  1.0000
  B   B3        1.0  0.74800  0.75000  0.25000  1.0000
  B   B4        1.0  0.75200  0.25000  0.25000  1.0000
  B   B5        1.0  0.40500  0.26000  0.53200  1.0000
  B   B6        1.0  0.09500  0.74000  0.53200  1.0000
  B   B7        1.0  0.40500  0.24000  0.96800  1.0000
  B   B8        1.0  0.09500  0.76000  0.96800  1.0000
  B   B9        1.0  0.59500  0.74000  0.46800  1.0000
  B   B10       1.0  0.90500  0.26000  0.46800  1.0000
  B   B11       1.0  0.59500  0.76000  0.03210  1.0000
  B   B12       1.0  0.90500  0.24000  0.03210  1.0000
  B   B13       1.0  0.25000  0.50000  0.59200  1.0000
  B   B14       1.0  0.25000  0.00000  0.90800  1.0000
  B   B15       1.0  0.75000  0.50000  0.40800  1.0000
  B   B16       1.0  0.75000  0.00000  0.09200  1.0000
  H   H1        1.0  0.70200  0.38400  0.78600  1.0000
  H   H2        1.0  0.79800  0.61600  0.78600  1.0000
  H   H3        1.0  0.70200  0.11600  0.71400  1.0000
  H   H4        1.0  0.79800  0.88400  0.71400  1.0000
  H   H5        1.0  0.36600  0.51500  0.35100  1.0000
  H   H6        1.0  0.13400  0.48500  0.35100  1.0000
  H   H7        1.0  0.36600  0.98500  0.14900  1.0000
  H   H8        1.0  0.13400  0.01540  0.14900  1.0000
  H   H9        1.0  0.63400  0.48500  0.64900  1.0000
  H   H10       1.0  0.86600  0.51500  0.64900  1.0000
  H   H11       1.0  0.63400  0.01540  0.85100  1.0000
  H   H12       1.0  0.86600  0.98500  0.85100  1.0000
  H   H13       1.0  0.57800  0.28300  0.40500  1.0000
  H   H14       1.0  0.92200  0.71700  0.40500  1.0000
  H   H15       1.0  0.57800  0.21700  0.09530  1.0000
  H   H16       1.0  0.92200  0.78300  0.09530  1.0000
  H   H17       1.0  0.42200  0.71700  0.59500  1.0000
  H   H18       1.0  0.07800  0.28300  0.59500  1.0000
  H   H19       1.0  0.42200  0.78300  0.90500  1.0000
  H   H20       1.0  0.07800  0.21700  0.90500  1.0000
  H   H21       1.0  0.29800  0.61600  0.21400  1.0000
  H   H22       1.0  0.20200  0.38400  0.21400  1.0000
  H   H23       1.0  0.29800  0.88400  0.28600  1.0000
  H   H24       1.0  0.20200  0.11600  0.28600  1.0000
  Li  Li1       1.0  0.04700  0.48500  0.83600  1.0000
  Li  Li2       1.0  0.45300  0.51500  0.83600  1.0000
  Li  Li3       1.0  0.04700  0.01540  0.66400  1.0000
  Li  Li4       1.0  0.45300  0.98500  0.66400  1.0000
  Li  Li5       1.0  0.95300  0.51500  0.16400  1.0000
  Li  Li6       1.0  0.54700  0.48500  0.16400  1.0000
  Li  Li7       1.0  0.95300  0.98500  0.33600  1.0000
  Li  Li8       1.0  0.54700  0.01540  0.33600  1.0000
  O   O1        1.0  0.33800  0.16800  0.63800  1.0000
  O   O2        1.0  0.16200  0.83200  0.63800  1.0000
  O   O3        1.0  0.33800  0.33200  0.86200  1.0000
  O   O4        1.0  0.16200  0.66800  0.86200  1.0000
  O   O5        1.0  0.66200  0.83200  0.36200  1.0000
  O   O6        1.0  0.83800  0.16800  0.36200  1.0000
  O   O7        1.0  0.66200  0.66800  0.13800  1.0000
  O   O8        1.0  0.83800  0.33200  0.13800  1.0000
  O   O9        1.0  0.16400  0.38200  0.68300  1.0000
  O   O10       1.0  0.33600  0.61800  0.68300  1.0000
  O   O11       1.0  0.16400  0.11800  0.81700  1.0000
  O   O12       1.0  0.33600  0.88200  0.81700  1.0000
  O   O13       1.0  0.83600  0.61800  0.31700  1.0000
  O   O14       1.0  0.66400  0.38200  0.31700  1.0000
  O   O15       1.0  0.83600  0.88200  0.18300  1.0000
  O   O16       1.0  0.66400  0.11800  0.18300  1.0000
  O   O17       1.0  0.35300  0.41500  0.49600  1.0000
  O   O18       1.0  0.14700  0.58500  0.49600  1.0000
  O   O19       1.0  0.35300  0.08520  0.00399  1.0000
  O   O20       1.0  0.14700  0.91500  0.00399  1.0000
  O   O21       1.0  0.64700  0.58500  0.50400  1.0000
  O   O22       1.0  0.85300  0.41500  0.50400  1.0000
  O   O23       1.0  0.64700  0.91500  0.99600  1.0000
  O   O24       1.0  0.85300  0.08520  0.99600  1.0000
  O   O25       1.0  0.52000  0.19000  0.46300  1.0000
  O   O26       1.0  0.98000  0.81000  0.46300  1.0000
  O   O27       1.0  0.52000  0.31000  0.03700  1.0000
  O   O28       1.0  0.98000  0.69000  0.03700  1.0000
  O   O29       1.0  0.48000  0.81000  0.53700  1.0000
  O   O30       1.0  0.02050  0.19000  0.53700  1.0000
  O   O31       1.0  0.48000  0.69000  0.96300  1.0000
  O   O32       1.0  0.02050  0.31000  0.96300  1.0000
  O   O33       1.0  0.61300  0.43000  0.74600  1.0000
  O   O34       1.0  0.88700  0.57000  0.74600  1.0000
  O   O35       1.0  0.61300  0.07000  0.75400  1.0000
  O   O36       1.0  0.88700  0.93000  0.75400  1.0000
  O   O37       1.0  0.38700  0.57000  0.25400  1.0000
  O   O38       1.0  0.11300  0.43000  0.25400  1.0000
  O   O39       1.0  0.38700  0.93000  0.24600  1.0000
  O   O40       1.0  0.11300  0.07000  0.24600  1.0000
