data_image0
_chemical_formula_structural       Br2PdSe6
_chemical_formula_sum              "Br2 Pd1 Se6"
_cell_length_a       4.63737
_cell_length_b       7.69843
_cell_length_c       8.13528
_cell_angle_alpha    66.2086
_cell_angle_beta     86.6037
_cell_angle_gamma    80.6394

_space_group_name_H-M_alt    "P 1"
_space_group_IT_number       1

loop_
  _space_group_symop_operation_xyz
  'x, y, z'

loop_
  _atom_site_type_symbol
  _atom_site_label
  _atom_site_symmetry_multiplicity
  _atom_site_fract_x
  _atom_site_fract_y
  _atom_site_fract_z
  _atom_site_occupancy
  Br  Br1       1.0  0.62000  0.16300  0.13900  1.0000
  Br  Br2       1.0  0.38000  0.83700  0.86100  1.0000
  Pd  Pd1       1.0  0.00000  0.00000  0.00000  1.0000
  Se  Se1       1.0  0.94500  0.47800  0.24300  1.0000
  Se  Se2       1.0  0.15400  0.73000  0.28100  1.0000
  Se  Se3       1.0  0.16600  0.21500  0.49300  1.0000
  Se  Se4       1.0  0.83400  0.78500  0.50700  1.0000
  Se  Se5       1.0  0.84600  0.27000  0.71900  1.0000
  Se  Se6       1.0  0.05460  0.52200  0.75700  1.0000
