data_image0
_chemical_formula_structural       H12K6O12Sc2
_chemical_formula_sum              "H12 K6 O12 Sc2"
_cell_length_a       7.16214
_cell_length_b       7.16214
_cell_length_c       6.49698
_cell_angle_alpha    83.0247
_cell_angle_beta     96.9753
_cell_angle_gamma    83.3938

_space_group_name_H-M_alt    "P 1"
_space_group_IT_number       1

loop_
  _space_group_symop_operation_xyz
  'x, y, z'

loop_
  _atom_site_type_symbol
  _atom_site_label
  _atom_site_symmetry_multiplicity
  _atom_site_fract_x
  _atom_site_fract_y
  _atom_site_fract_z
  _atom_site_occupancy
  H   H1        1.0  0.43900  0.06590  0.07460  1.0000
  H   H2        1.0  0.06590  0.43900  0.42500  1.0000
  H   H3        1.0  0.56100  0.93400  0.92500  1.0000
  H   H4        1.0  0.93400  0.56100  0.57500  1.0000
  H   H5        1.0  0.14700  0.19700  0.39800  1.0000
  H   H6        1.0  0.19700  0.14700  0.10200  1.0000
  H   H7        1.0  0.85300  0.80300  0.60200  1.0000
  H   H8        1.0  0.80300  0.85300  0.89800  1.0000
  H   H9        1.0  0.48300  0.31200  0.26200  1.0000
  H   H10       1.0  0.31200  0.48300  0.23800  1.0000
  H   H11       1.0  0.51700  0.68800  0.73800  1.0000
  H   H12       1.0  0.68800  0.51700  0.76200  1.0000
  K   K1        1.0  0.79600  0.12600  0.15200  1.0000
  K   K2        1.0  0.12600  0.79600  0.34800  1.0000
  K   K3        1.0  0.20400  0.87400  0.84800  1.0000
  K   K4        1.0  0.87400  0.20400  0.65200  1.0000
  K   K5        1.0  0.63100  0.63100  0.25000  1.0000
  K   K6        1.0  0.36900  0.36900  0.75000  1.0000
  O   O1        1.0  0.78700  0.90000  0.48900  1.0000
  O   O2        1.0  0.90000  0.78700  0.01140  1.0000
  O   O3        1.0  0.21300  0.10000  0.51100  1.0000
  O   O4        1.0  0.10000  0.21300  0.98900  1.0000
  O   O5        1.0  0.42600  0.96600  0.18500  1.0000
  O   O6        1.0  0.96600  0.42600  0.31500  1.0000
  O   O7        1.0  0.57400  0.03410  0.81500  1.0000
  O   O8        1.0  0.03410  0.57400  0.68500  1.0000
  O   O9        1.0  0.55000  0.28000  0.40400  1.0000
  O   O10       1.0  0.28000  0.55000  0.09630  1.0000
  O   O11       1.0  0.45000  0.72000  0.59600  1.0000
  O   O12       1.0  0.72000  0.45000  0.90400  1.0000
  Sc  Sc1       1.0  0.00000  0.50000  0.00000  1.0000
  Sc  Sc2       1.0  0.50000  0.00000  0.50000  1.0000
