data_image0
_chemical_formula_structural       Cs4F16Mn4
_chemical_formula_sum              "Cs4 F16 Mn4"
_cell_length_a       7.54043
_cell_length_b       7.54043
_cell_length_c       5.96275
_cell_angle_alpha    90
_cell_angle_beta     90
_cell_angle_gamma    90

_space_group_name_H-M_alt    "P 1"
_space_group_IT_number       1

loop_
  _space_group_symop_operation_xyz
  'x, y, z'

loop_
  _atom_site_type_symbol
  _atom_site_label
  _atom_site_symmetry_multiplicity
  _atom_site_fract_x
  _atom_site_fract_y
  _atom_site_fract_z
  _atom_site_occupancy
  Cs  Cs1       1.0  0.75000  0.25000  0.50000  1.0000
  Cs  Cs2       1.0  0.25000  0.75000  0.50000  1.0000
  Cs  Cs3       1.0  0.25000  0.25000  0.42700  1.0000
  Cs  Cs4       1.0  0.75000  0.75000  0.57300  1.0000
  F   F1        1.0  0.25700  0.98700  0.07450  1.0000
  F   F2        1.0  0.24300  0.51300  0.07450  1.0000
  F   F3        1.0  0.51300  0.25700  0.07450  1.0000
  F   F4        1.0  0.98700  0.24300  0.07450  1.0000
  F   F5        1.0  0.74300  0.01290  0.92500  1.0000
  F   F6        1.0  0.75700  0.48700  0.92500  1.0000
  F   F7        1.0  0.48700  0.74300  0.92500  1.0000
  F   F8        1.0  0.01290  0.75700  0.92500  1.0000
  F   F9        1.0  0.95400  0.95100  0.29400  1.0000
  F   F10       1.0  0.54600  0.54900  0.29400  1.0000
  F   F11       1.0  0.54900  0.95400  0.29400  1.0000
  F   F12       1.0  0.95100  0.54600  0.29400  1.0000
  F   F13       1.0  0.04600  0.04950  0.70600  1.0000
  F   F14       1.0  0.45400  0.45100  0.70600  1.0000
  F   F15       1.0  0.45100  0.04600  0.70600  1.0000
  F   F16       1.0  0.04950  0.45400  0.70600  1.0000
  Mn  Mn1       1.0  0.00000  0.00000  0.00000  1.0000
  Mn  Mn2       1.0  0.50000  0.50000  0.00000  1.0000
  Mn  Mn3       1.0  0.50000  0.00000  0.00000  1.0000
  Mn  Mn4       1.0  0.00000  0.50000  0.00000  1.0000
