data_image0
_chemical_formula_structural       Ba6Bi2O18Ru4
_chemical_formula_sum              "Ba6 Bi2 O18 Ru4"
_cell_length_a       5.88748
_cell_length_b       5.88748
_cell_length_c       14.6293
_cell_angle_alpha    89.3886
_cell_angle_beta     90.6114
_cell_angle_gamma    60.0879

_space_group_name_H-M_alt    "P 1"
_space_group_IT_number       1

loop_
  _space_group_symop_operation_xyz
  'x, y, z'

loop_
  _atom_site_type_symbol
  _atom_site_label
  _atom_site_symmetry_multiplicity
  _atom_site_fract_x
  _atom_site_fract_y
  _atom_site_fract_z
  _atom_site_occupancy
  Ba  Ba1       1.0  0.32700  0.33900  0.40400  1.0000
  Ba  Ba2       1.0  0.33900  0.32700  0.09590  1.0000
  Ba  Ba3       1.0  0.66100  0.67300  0.90400  1.0000
  Ba  Ba4       1.0  0.67300  0.66100  0.59600  1.0000
  Ba  Ba5       1.0  0.99500  0.99500  0.25000  1.0000
  Ba  Ba6       1.0  0.00463  0.00462  0.75000  1.0000
  Bi  Bi1       1.0  0.00000  0.00000  0.00000  1.0000
  Bi  Bi2       1.0  0.00000  0.00000  0.50000  1.0000
  O   O1        1.0  0.85800  0.32500  0.10100  1.0000
  O   O2        1.0  0.32500  0.85800  0.39900  1.0000
  O   O3        1.0  0.14200  0.67500  0.89900  1.0000
  O   O4        1.0  0.67500  0.14200  0.60100  1.0000
  O   O5        1.0  0.78900  0.39100  0.42400  1.0000
  O   O6        1.0  0.39100  0.78900  0.07620  1.0000
  O   O7        1.0  0.21100  0.60900  0.57600  1.0000
  O   O8        1.0  0.60900  0.21100  0.92400  1.0000
  O   O9        1.0  0.50200  0.98400  0.24100  1.0000
  O   O10       1.0  0.98400  0.50200  0.25900  1.0000
  O   O11       1.0  0.49800  0.01630  0.75900  1.0000
  O   O12       1.0  0.01630  0.49800  0.74100  1.0000
  O   O13       1.0  0.85700  0.79500  0.09370  1.0000
  O   O14       1.0  0.79500  0.85700  0.40600  1.0000
  O   O15       1.0  0.14300  0.20500  0.90600  1.0000
  O   O16       1.0  0.20500  0.14300  0.59400  1.0000
  O   O17       1.0  0.50400  0.50400  0.25000  1.0000
  O   O18       1.0  0.49600  0.49600  0.75000  1.0000
  Ru  Ru1       1.0  0.32300  0.34600  0.83300  1.0000
  Ru  Ru2       1.0  0.34600  0.32300  0.66700  1.0000
  Ru  Ru3       1.0  0.67700  0.65400  0.16700  1.0000
  Ru  Ru4       1.0  0.65400  0.67700  0.33300  1.0000
