data_image0
_chemical_formula_structural       B16In4Li4O40Sr8
_chemical_formula_sum              "B16 In4 Li4 O40 Sr8"
_cell_length_a       12.1863
_cell_length_b       5.23008
_cell_length_c       13.3158
_cell_angle_alpha    90
_cell_angle_beta     114.733
_cell_angle_gamma    90

_space_group_name_H-M_alt    "P 1"
_space_group_IT_number       1

loop_
  _space_group_symop_operation_xyz
  'x, y, z'

loop_
  _atom_site_type_symbol
  _atom_site_label
  _atom_site_symmetry_multiplicity
  _atom_site_fract_x
  _atom_site_fract_y
  _atom_site_fract_z
  _atom_site_occupancy
  B   B1        1.0  0.09190  0.60000  0.94800  1.0000
  B   B2        1.0  0.40800  0.10000  0.55200  1.0000
  B   B3        1.0  0.90800  0.40000  0.05160  1.0000
  B   B4        1.0  0.59200  0.90000  0.44800  1.0000
  B   B5        1.0  0.10500  0.64100  0.71500  1.0000
  B   B6        1.0  0.39500  0.14100  0.78500  1.0000
  B   B7        1.0  0.89500  0.35900  0.28500  1.0000
  B   B8        1.0  0.60500  0.85900  0.21500  1.0000
  B   B9        1.0  0.41200  0.06250  0.27400  1.0000
  B   B10       1.0  0.08790  0.56300  0.22600  1.0000
  B   B11       1.0  0.58800  0.93800  0.72600  1.0000
  B   B12       1.0  0.91200  0.43800  0.77400  1.0000
  B   B13       1.0  0.43000  0.08380  0.05370  1.0000
  B   B14       1.0  0.07010  0.58400  0.44600  1.0000
  B   B15       1.0  0.57000  0.91600  0.94600  1.0000
  B   B16       1.0  0.93000  0.41600  0.55400  1.0000
  In  In1       1.0  0.13200  0.07270  0.38200  1.0000
  In  In2       1.0  0.36800  0.57300  0.11800  1.0000
  In  In3       1.0  0.86800  0.92700  0.61800  1.0000
  In  In4       1.0  0.63200  0.42700  0.88200  1.0000
  Li  Li1       1.0  0.38600  0.60800  0.90100  1.0000
  Li  Li2       1.0  0.11400  0.10800  0.59900  1.0000
  Li  Li3       1.0  0.61400  0.39200  0.09890  1.0000
  Li  Li4       1.0  0.88600  0.89200  0.40100  1.0000
  O   O1        1.0  0.14600  0.33800  0.26600  1.0000
  O   O2        1.0  0.35400  0.83800  0.23400  1.0000
  O   O3        1.0  0.85400  0.66200  0.73400  1.0000
  O   O4        1.0  0.64600  0.16200  0.76600  1.0000
  O   O5        1.0  0.39900  0.31700  0.00405  1.0000
  O   O6        1.0  0.10100  0.81700  0.49600  1.0000
  O   O7        1.0  0.60100  0.68300  0.99600  1.0000
  O   O8        1.0  0.89900  0.18300  0.50400  1.0000
  O   O9        1.0  0.18100  0.48200  0.03670  1.0000
  O   O10       1.0  0.31900  0.98200  0.46300  1.0000
  O   O11       1.0  0.81900  0.51800  0.96300  1.0000
  O   O12       1.0  0.68100  0.01830  0.53700  1.0000
  O   O13       1.0  0.05750  0.88000  0.69300  1.0000
  O   O14       1.0  0.44200  0.38000  0.80700  1.0000
  O   O15       1.0  0.94200  0.12000  0.30700  1.0000
  O   O16       1.0  0.55800  0.62000  0.19300  1.0000
  O   O17       1.0  0.07000  0.85300  0.93700  1.0000
  O   O18       1.0  0.43000  0.35300  0.56300  1.0000
  O   O19       1.0  0.93000  0.14700  0.06350  1.0000
  O   O20       1.0  0.57000  0.64700  0.43700  1.0000
  O   O21       1.0  0.35600  0.88000  0.00859  1.0000
  O   O22       1.0  0.14400  0.38000  0.49100  1.0000
  O   O23       1.0  0.64400  0.12000  0.99100  1.0000
  O   O24       1.0  0.85600  0.62000  0.50900  1.0000
  O   O25       1.0  0.01890  0.41600  0.87000  1.0000
  O   O26       1.0  0.48100  0.91600  0.63000  1.0000
  O   O27       1.0  0.98100  0.58400  0.13000  1.0000
  O   O28       1.0  0.51900  0.08360  0.37000  1.0000
  O   O29       1.0  0.03870  0.42700  0.65100  1.0000
  O   O30       1.0  0.46100  0.92700  0.84900  1.0000
  O   O31       1.0  0.96100  0.57300  0.34900  1.0000
  O   O32       1.0  0.53900  0.07290  0.15100  1.0000
  O   O33       1.0  0.21600  0.59000  0.79400  1.0000
  O   O34       1.0  0.28400  0.09040  0.70600  1.0000
  O   O35       1.0  0.78400  0.41000  0.20600  1.0000
  O   O36       1.0  0.71600  0.91000  0.29400  1.0000
  O   O37       1.0  0.35900  0.28600  0.22700  1.0000
  O   O38       1.0  0.14100  0.78600  0.27300  1.0000
  O   O39       1.0  0.64100  0.71400  0.77300  1.0000
  O   O40       1.0  0.85900  0.21400  0.72700  1.0000
  Sr  Sr1       1.0  0.18700  0.12700  0.85500  1.0000
  Sr  Sr2       1.0  0.31300  0.62700  0.64500  1.0000
  Sr  Sr3       1.0  0.81300  0.87300  0.14500  1.0000
  Sr  Sr4       1.0  0.68700  0.37300  0.35500  1.0000
  Sr  Sr5       1.0  0.15100  0.05720  0.12100  1.0000
  Sr  Sr6       1.0  0.34900  0.55700  0.37900  1.0000
  Sr  Sr7       1.0  0.84900  0.94300  0.87900  1.0000
  Sr  Sr8       1.0  0.65100  0.44300  0.62100  1.0000
