data_image0
_chemical_formula_structural       B20H8Li4O36
_chemical_formula_sum              "B20 H8 Li4 O36"
_cell_length_a       11.7202
_cell_length_b       7.75804
_cell_length_c       5.12485
_cell_angle_alpha    90
_cell_angle_beta     100.162
_cell_angle_gamma    90

_space_group_name_H-M_alt    "P 1"
_space_group_IT_number       1

loop_
  _space_group_symop_operation_xyz
  'x, y, z'

loop_
  _atom_site_type_symbol
  _atom_site_label
  _atom_site_symmetry_multiplicity
  _atom_site_fract_x
  _atom_site_fract_y
  _atom_site_fract_z
  _atom_site_occupancy
  B   B1        1.0  0.55800  0.10300  0.47000  1.0000
  B   B2        1.0  0.05760  0.39700  0.47000  1.0000
  B   B3        1.0  0.44200  0.89700  0.53000  1.0000
  B   B4        1.0  0.96600  0.88600  0.73800  1.0000
  B   B5        1.0  0.53400  0.38600  0.26200  1.0000
  B   B6        1.0  0.03370  0.11400  0.26200  1.0000
  B   B7        1.0  0.46600  0.61400  0.73800  1.0000
  B   B8        1.0  0.65100  0.63200  0.06820  1.0000
  B   B9        1.0  0.84900  0.13200  0.93200  1.0000
  B   B10       1.0  0.34900  0.36800  0.93200  1.0000
  B   B11       1.0  0.15100  0.86800  0.06820  1.0000
  B   B12       1.0  0.16000  0.58700  0.86600  1.0000
  B   B13       1.0  0.34000  0.08680  0.13400  1.0000
  B   B14       1.0  0.84000  0.41300  0.13400  1.0000
  B   B15       1.0  0.66000  0.91300  0.86600  1.0000
  B   B16       1.0  0.80900  0.68900  0.82100  1.0000
  B   B17       1.0  0.69100  0.18900  0.17900  1.0000
  B   B18       1.0  0.19100  0.31100  0.17900  1.0000
  B   B19       1.0  0.30900  0.81100  0.82100  1.0000
  B   B20       1.0  0.94200  0.60300  0.53000  1.0000
  H   H1        1.0  0.93400  0.14000  0.60200  1.0000
  H   H2        1.0  0.43400  0.36000  0.60200  1.0000
  H   H3        1.0  0.06640  0.86000  0.39800  1.0000
  H   H4        1.0  0.08500  0.12600  0.91400  1.0000
  H   H5        1.0  0.41500  0.62600  0.08590  1.0000
  H   H6        1.0  0.91500  0.87400  0.08590  1.0000
  H   H7        1.0  0.58500  0.37400  0.91400  1.0000
  H   H8        1.0  0.56600  0.64000  0.39800  1.0000
  Li  Li1       1.0  0.76500  0.89700  0.39600  1.0000
  Li  Li2       1.0  0.73500  0.39700  0.60400  1.0000
  Li  Li3       1.0  0.23500  0.10300  0.60400  1.0000
  Li  Li4       1.0  0.26500  0.60300  0.39600  1.0000
  O   O1        1.0  0.41900  0.71700  0.93800  1.0000
  O   O2        1.0  0.83700  0.58300  0.61900  1.0000
  O   O3        1.0  0.66300  0.08260  0.38100  1.0000
  O   O4        1.0  0.16300  0.41700  0.38100  1.0000
  O   O5        1.0  0.33700  0.91700  0.61900  1.0000
  O   O6        1.0  0.08090  0.94600  0.83600  1.0000
  O   O7        1.0  0.41900  0.44600  0.16400  1.0000
  O   O8        1.0  0.91900  0.05400  0.16400  1.0000
  O   O9        1.0  0.58100  0.55400  0.83600  1.0000
  O   O10       1.0  0.96200  0.78700  0.49800  1.0000
  O   O11       1.0  0.53800  0.28700  0.50200  1.0000
  O   O12       1.0  0.03750  0.21300  0.50200  1.0000
  O   O13       1.0  0.46200  0.71300  0.49800  1.0000
  O   O14       1.0  0.55000  0.98600  0.69900  1.0000
  O   O15       1.0  0.95000  0.48600  0.30100  1.0000
  O   O16       1.0  0.45000  0.01400  0.30100  1.0000
  O   O17       1.0  0.05000  0.51400  0.69900  1.0000
  O   O18       1.0  0.64500  0.81300  0.09400  1.0000
  O   O19       1.0  0.85500  0.31300  0.90600  1.0000
  O   O20       1.0  0.35500  0.18700  0.90600  1.0000
  O   O21       1.0  0.14500  0.68700  0.09400  1.0000
  O   O22       1.0  0.61300  0.54800  0.31100  1.0000
  O   O23       1.0  0.88700  0.04850  0.68900  1.0000
  O   O24       1.0  0.38700  0.45200  0.68900  1.0000
  O   O25       1.0  0.11300  0.95200  0.31100  1.0000
  O   O26       1.0  0.72200  0.81200  0.70900  1.0000
  O   O27       1.0  0.77800  0.31200  0.29100  1.0000
  O   O28       1.0  0.27800  0.18800  0.29100  1.0000
  O   O29       1.0  0.22200  0.68800  0.70900  1.0000
  O   O30       1.0  0.77400  0.58300  0.04190  1.0000
  O   O31       1.0  0.72600  0.08270  0.95800  1.0000
  O   O32       1.0  0.22600  0.41700  0.95800  1.0000
  O   O33       1.0  0.27400  0.91700  0.04190  1.0000
  O   O34       1.0  0.91900  0.78300  0.93800  1.0000
  O   O35       1.0  0.58100  0.28300  0.06180  1.0000
  O   O36       1.0  0.08070  0.21700  0.06180  1.0000
