data_image0
_chemical_formula_structural       CCs2I18Zr7
_chemical_formula_sum              "C1 Cs2 I18 Zr7"
_cell_length_a       11.8485
_cell_length_b       11.8485
_cell_length_c       11.8485
_cell_angle_alpha    55.1323
_cell_angle_beta     55.1323
_cell_angle_gamma    55.1323

_space_group_name_H-M_alt    "P 1"
_space_group_IT_number       1

loop_
  _space_group_symop_operation_xyz
  'x, y, z'

loop_
  _atom_site_type_symbol
  _atom_site_label
  _atom_site_symmetry_multiplicity
  _atom_site_fract_x
  _atom_site_fract_y
  _atom_site_fract_z
  _atom_site_occupancy
  C   C1        1.0  0.00000  0.00000  0.00000  1.0000
  Cs  Cs1       1.0  0.22400  0.22400  0.22400  1.0000
  Cs  Cs2       1.0  0.77600  0.77600  0.77600  1.0000
  I   I1        1.0  0.34400  0.05990  0.92500  1.0000
  I   I2        1.0  0.92500  0.34400  0.05990  1.0000
  I   I3        1.0  0.05990  0.92500  0.34400  1.0000
  I   I4        1.0  0.65600  0.94000  0.07510  1.0000
  I   I5        1.0  0.07510  0.65600  0.94000  1.0000
  I   I6        1.0  0.94000  0.07510  0.65600  1.0000
  I   I7        1.0  0.20700  0.48100  0.64600  1.0000
  I   I8        1.0  0.64600  0.20700  0.48100  1.0000
  I   I9        1.0  0.48100  0.64600  0.20700  1.0000
  I   I10       1.0  0.79300  0.51900  0.35400  1.0000
  I   I11       1.0  0.35400  0.79300  0.51900  1.0000
  I   I12       1.0  0.51900  0.35400  0.79300  1.0000
  I   I13       1.0  0.41700  0.71500  0.86800  1.0000
  I   I14       1.0  0.86800  0.41700  0.71500  1.0000
  I   I15       1.0  0.71500  0.86800  0.41700  1.0000
  I   I16       1.0  0.58300  0.28500  0.13200  1.0000
  I   I17       1.0  0.13200  0.58300  0.28500  1.0000
  I   I18       1.0  0.28500  0.13200  0.58300  1.0000
  Zr  Zr1       1.0  0.50000  0.50000  0.50000  1.0000
  Zr  Zr2       1.0  0.08500  0.19100  0.85500  1.0000
  Zr  Zr3       1.0  0.85500  0.08500  0.19100  1.0000
  Zr  Zr4       1.0  0.19100  0.85500  0.08500  1.0000
  Zr  Zr5       1.0  0.91500  0.80900  0.14500  1.0000
  Zr  Zr6       1.0  0.14500  0.91500  0.80900  1.0000
  Zr  Zr7       1.0  0.80900  0.14500  0.91500  1.0000
