data_image0
_chemical_formula_structural       I8La8O16Si4
_chemical_formula_sum              "I8 La8 O16 Si4"
_cell_length_a       8.40778
_cell_length_b       8.49857
_cell_length_c       11.3478
_cell_angle_alpha    99.8583
_cell_angle_beta     109.578
_cell_angle_gamma    90.1785

_space_group_name_H-M_alt    "P 1"
_space_group_IT_number       1

loop_
  _space_group_symop_operation_xyz
  'x, y, z'

loop_
  _atom_site_type_symbol
  _atom_site_label
  _atom_site_symmetry_multiplicity
  _atom_site_fract_x
  _atom_site_fract_y
  _atom_site_fract_z
  _atom_site_occupancy
  I   I1        1.0  0.39600  0.86200  0.62200  1.0000
  I   I2        1.0  0.60400  0.13800  0.37800  1.0000
  I   I3        1.0  0.43600  0.34800  0.63500  1.0000
  I   I4        1.0  0.56400  0.65200  0.36500  1.0000
  I   I5        1.0  0.89600  0.46800  0.62400  1.0000
  I   I6        1.0  0.10400  0.53200  0.37600  1.0000
  I   I7        1.0  0.95500  0.97900  0.64900  1.0000
  I   I8        1.0  0.04460  0.02070  0.35100  1.0000
  La  La1       1.0  0.92200  0.28000  0.86600  1.0000
  La  La2       1.0  0.07780  0.72000  0.13400  1.0000
  La  La3       1.0  0.77000  0.76900  0.79400  1.0000
  La  La4       1.0  0.23000  0.23100  0.20600  1.0000
  La  La5       1.0  0.27000  0.63900  0.79300  1.0000
  La  La6       1.0  0.73000  0.36100  0.20700  1.0000
  La  La7       1.0  0.41800  0.15700  0.86100  1.0000
  La  La8       1.0  0.58200  0.84300  0.13900  1.0000
  O   O1        1.0  0.14600  0.12100  0.96200  1.0000
  O   O2        1.0  0.85400  0.87900  0.03810  1.0000
  O   O3        1.0  0.14100  0.44400  0.07680  1.0000
  O   O4        1.0  0.85900  0.55600  0.92300  1.0000
  O   O5        1.0  0.26600  0.94300  0.13000  1.0000
  O   O6        1.0  0.73400  0.05740  0.87000  1.0000
  O   O7        1.0  0.23800  0.38500  0.87300  1.0000
  O   O8        1.0  0.76200  0.61500  0.12700  1.0000
  O   O9        1.0  0.43400  0.33400  0.10400  1.0000
  O   O10       1.0  0.56600  0.66600  0.89600  1.0000
  O   O11       1.0  0.06930  0.78500  0.90200  1.0000
  O   O12       1.0  0.93100  0.21500  0.09780  1.0000
  O   O13       1.0  0.35900  0.64000  0.04300  1.0000
  O   O14       1.0  0.64100  0.36000  0.95700  1.0000
  O   O15       1.0  0.36000  0.90800  0.92300  1.0000
  O   O16       1.0  0.64000  0.09170  0.07710  1.0000
  Si  Si1       1.0  0.30300  0.45400  0.02770  1.0000
  Si  Si2       1.0  0.69700  0.54600  0.97200  1.0000
  Si  Si3       1.0  0.20100  0.94000  0.97500  1.0000
  Si  Si4       1.0  0.79900  0.05970  0.02540  1.0000
