data_image0
_chemical_formula_structural       F6MgRh
_chemical_formula_sum              "F6 Mg1 Rh1"
_cell_length_a       4.76952
_cell_length_b       4.76952
_cell_length_c       5.21849
_cell_angle_alpha    117.192
_cell_angle_beta     117.192
_cell_angle_gamma    60.0016

_space_group_name_H-M_alt    "P 1"
_space_group_IT_number       1

loop_
  _space_group_symop_operation_xyz
  'x, y, z'

loop_
  _atom_site_type_symbol
  _atom_site_label
  _atom_site_symmetry_multiplicity
  _atom_site_fract_x
  _atom_site_fract_y
  _atom_site_fract_z
  _atom_site_occupancy
  F   F1        1.0  0.75400  0.41600  0.25000  1.0000
  F   F2        1.0  0.41600  0.08010  0.25000  1.0000
  F   F3        1.0  0.08010  0.75400  0.25000  1.0000
  F   F4        1.0  0.92000  0.24600  0.75000  1.0000
  F   F5        1.0  0.58400  0.92000  0.75000  1.0000
  F   F6        1.0  0.24600  0.58400  0.75000  1.0000
  Mg  Mg1       1.0  0.50000  0.50000  0.50000  1.0000
  Rh  Rh1       1.0  0.00000  0.00000  0.00000  1.0000
