data_image0
_chemical_formula_structural       Ca2O20P4V4
_chemical_formula_sum              "Ca2 O20 P4 V4"
_cell_length_a       8.59461
_cell_length_b       6.70987
_cell_length_c       9.65135
_cell_angle_alpha    60.2325
_cell_angle_beta     42.6634
_cell_angle_gamma    77.104

_space_group_name_H-M_alt    "P 1"
_space_group_IT_number       1

loop_
  _space_group_symop_operation_xyz
  'x, y, z'

loop_
  _atom_site_type_symbol
  _atom_site_label
  _atom_site_symmetry_multiplicity
  _atom_site_fract_x
  _atom_site_fract_y
  _atom_site_fract_z
  _atom_site_occupancy
  Ca  Ca1       1.0  0.50000  0.50000  0.00000  1.0000
  Ca  Ca2       1.0  0.25000  0.25000  0.75000  1.0000
  O   O1        1.0  0.88300  0.13600  0.14100  1.0000
  O   O2        1.0  0.13600  0.88300  0.84000  1.0000
  O   O3        1.0  0.41000  0.10900  0.11400  1.0000
  O   O4        1.0  0.10900  0.41000  0.36700  1.0000
  O   O5        1.0  0.21700  0.93600  0.07420  1.0000
  O   O6        1.0  0.93600  0.21700  0.77200  1.0000
  O   O7        1.0  0.47800  0.17600  0.31400  1.0000
  O   O8        1.0  0.17600  0.47800  0.03280  1.0000
  O   O9        1.0  0.91400  0.07260  0.42200  1.0000
  O   O10       1.0  0.07260  0.91400  0.59200  1.0000
  O   O11       1.0  0.65800  0.82800  0.17700  1.0000
  O   O12       1.0  0.82800  0.65800  0.33600  1.0000
  O   O13       1.0  0.52800  0.80800  0.67600  1.0000
  O   O14       1.0  0.80800  0.52800  0.98700  1.0000
  O   O15       1.0  0.26300  0.57400  0.44200  1.0000
  O   O16       1.0  0.57400  0.26300  0.72200  1.0000
  O   O17       1.0  0.85900  0.60400  0.61200  1.0000
  O   O18       1.0  0.60400  0.85900  0.92500  1.0000
  O   O19       1.0  0.32500  0.63800  0.64600  1.0000
  O   O20       1.0  0.63800  0.32500  0.39100  1.0000
  P   P1        1.0  0.04090  0.45100  0.54800  1.0000
  P   P2        1.0  0.45100  0.04090  0.96000  1.0000
  P   P3        1.0  0.29000  0.70200  0.79900  1.0000
  P   P4        1.0  0.70200  0.29000  0.20900  1.0000
  V   V1        1.0  0.86700  0.85800  0.37400  1.0000
  V   V2        1.0  0.85800  0.86700  0.90100  1.0000
  V   V3        1.0  0.34900  0.87600  0.39200  1.0000
  V   V4        1.0  0.87600  0.34900  0.38300  1.0000
