data_image0
_chemical_formula_structural       I2Nb8Te24
_chemical_formula_sum              "I2 Nb8 Te24"
_cell_length_a       11.2155
_cell_length_b       11.2155
_cell_length_c       19.5329
_cell_angle_alpha    59.1675
_cell_angle_beta     120.832
_cell_angle_gamma    148.051

_space_group_name_H-M_alt    "P 1"
_space_group_IT_number       1

loop_
  _space_group_symop_operation_xyz
  'x, y, z'

loop_
  _atom_site_type_symbol
  _atom_site_label
  _atom_site_symmetry_multiplicity
  _atom_site_fract_x
  _atom_site_fract_y
  _atom_site_fract_z
  _atom_site_occupancy
  I   I1        1.0  0.70400  0.70400  0.75000  1.0000
  I   I2        1.0  0.29600  0.29600  0.25000  1.0000
  Nb  Nb1       1.0  0.00066  0.13600  0.63500  1.0000
  Nb  Nb2       1.0  0.13600  0.00066  0.86500  1.0000
  Nb  Nb3       1.0  0.99900  0.86400  0.36500  1.0000
  Nb  Nb4       1.0  0.86400  0.99900  0.13500  1.0000
  Nb  Nb5       1.0  0.42100  0.25500  0.73200  1.0000
  Nb  Nb6       1.0  0.25500  0.42100  0.76800  1.0000
  Nb  Nb7       1.0  0.57900  0.74500  0.26800  1.0000
  Nb  Nb8       1.0  0.74500  0.57900  0.23200  1.0000
  Te  Te1       1.0  0.66300  0.94500  0.50900  1.0000
  Te  Te2       1.0  0.94500  0.66300  0.99100  1.0000
  Te  Te3       1.0  0.33700  0.05480  0.49100  1.0000
  Te  Te4       1.0  0.05480  0.33700  0.00871  1.0000
  Te  Te5       1.0  0.36000  0.42300  0.56200  1.0000
  Te  Te6       1.0  0.42300  0.36000  0.93800  1.0000
  Te  Te7       1.0  0.64000  0.57700  0.43800  1.0000
  Te  Te8       1.0  0.57700  0.64000  0.06210  1.0000
  Te  Te9       1.0  0.19600  0.83100  0.82900  1.0000
  Te  Te10      1.0  0.83100  0.19600  0.67100  1.0000
  Te  Te11      1.0  0.80400  0.16900  0.17100  1.0000
  Te  Te12      1.0  0.16900  0.80400  0.32900  1.0000
  Te  Te13      1.0  0.56500  0.21500  0.90600  1.0000
  Te  Te14      1.0  0.21500  0.56500  0.59400  1.0000
  Te  Te15      1.0  0.43500  0.78500  0.09360  1.0000
  Te  Te16      1.0  0.78500  0.43500  0.40600  1.0000
  Te  Te17      1.0  0.78500  0.45100  0.71300  1.0000
  Te  Te18      1.0  0.45100  0.78500  0.78700  1.0000
  Te  Te19      1.0  0.21500  0.54900  0.28700  1.0000
  Te  Te20      1.0  0.54900  0.21500  0.21300  1.0000
  Te  Te21      1.0  0.08040  0.95900  0.61900  1.0000
  Te  Te22      1.0  0.95900  0.08040  0.88100  1.0000
  Te  Te23      1.0  0.92000  0.04100  0.38100  1.0000
  Te  Te24      1.0  0.04100  0.92000  0.11900  1.0000
