data_image0
_chemical_formula_structural       Ba7Br2O15Ru4
_chemical_formula_sum              "Ba7 Br2 O15 Ru4"
_cell_length_a       17.6638
_cell_length_b       17.6638
_cell_length_c       17.6638
_cell_angle_alpha    18.5741
_cell_angle_beta     18.5741
_cell_angle_gamma    18.5741

_space_group_name_H-M_alt    "P 1"
_space_group_IT_number       1

loop_
  _space_group_symop_operation_xyz
  'x, y, z'

loop_
  _atom_site_type_symbol
  _atom_site_label
  _atom_site_symmetry_multiplicity
  _atom_site_fract_x
  _atom_site_fract_y
  _atom_site_fract_z
  _atom_site_occupancy
  Ba  Ba1       1.0  0.79300  0.79300  0.79300  1.0000
  Ba  Ba2       1.0  0.20700  0.20700  0.20700  1.0000
  Ba  Ba3       1.0  0.71400  0.71400  0.71400  1.0000
  Ba  Ba4       1.0  0.28600  0.28600  0.28600  1.0000
  Ba  Ba5       1.0  0.08440  0.08440  0.08440  1.0000
  Ba  Ba6       1.0  0.91600  0.91600  0.91600  1.0000
  Ba  Ba7       1.0  0.00000  0.00000  0.00000  1.0000
  Br  Br1       1.0  0.14500  0.14500  0.14500  1.0000
  Br  Br2       1.0  0.85500  0.85500  0.85500  1.0000
  O   O1        1.0  0.21800  0.69700  0.21800  1.0000
  O   O2        1.0  0.21800  0.21800  0.69700  1.0000
  O   O3        1.0  0.69700  0.21800  0.21800  1.0000
  O   O4        1.0  0.30300  0.78200  0.78200  1.0000
  O   O5        1.0  0.78200  0.78200  0.30300  1.0000
  O   O6        1.0  0.78200  0.30300  0.78200  1.0000
  O   O7        1.0  0.41500  0.89800  0.41500  1.0000
  O   O8        1.0  0.41500  0.41500  0.89800  1.0000
  O   O9        1.0  0.89800  0.41500  0.41500  1.0000
  O   O10       1.0  0.10200  0.58500  0.58500  1.0000
  O   O11       1.0  0.58500  0.58500  0.10200  1.0000
  O   O12       1.0  0.58500  0.10200  0.58500  1.0000
  O   O13       1.0  0.50000  0.50000  0.00000  1.0000
  O   O14       1.0  0.00000  0.50000  0.50000  1.0000
  O   O15       1.0  0.50000  0.00000  0.50000  1.0000
  Ru  Ru1       1.0  0.40400  0.40400  0.40400  1.0000
  Ru  Ru2       1.0  0.59600  0.59600  0.59600  1.0000
  Ru  Ru3       1.0  0.35500  0.35500  0.35500  1.0000
  Ru  Ru4       1.0  0.64500  0.64500  0.64500  1.0000
