data_image0
_chemical_formula_structural       Au4Cl16K4
_chemical_formula_sum              "Au4 Cl16 K4"
_cell_length_a       8.52351
_cell_length_b       6.30028
_cell_length_c       12.07
_cell_angle_alpha    90
_cell_angle_beta     95.9031
_cell_angle_gamma    90

_space_group_name_H-M_alt    "P 1"
_space_group_IT_number       1

loop_
  _space_group_symop_operation_xyz
  'x, y, z'

loop_
  _atom_site_type_symbol
  _atom_site_label
  _atom_site_symmetry_multiplicity
  _atom_site_fract_x
  _atom_site_fract_y
  _atom_site_fract_z
  _atom_site_occupancy
  Au  Au1       1.0  0.00000  0.50000  0.00000  1.0000
  Au  Au2       1.0  0.00000  0.00000  0.50000  1.0000
  Au  Au3       1.0  0.50000  0.50000  0.00000  1.0000
  Au  Au4       1.0  0.50000  0.00000  0.50000  1.0000
  Cl  Cl1       1.0  0.66800  0.23300  0.07320  1.0000
  Cl  Cl2       1.0  0.33200  0.73300  0.42700  1.0000
  Cl  Cl3       1.0  0.33200  0.76700  0.92700  1.0000
  Cl  Cl4       1.0  0.66800  0.26700  0.57300  1.0000
  Cl  Cl5       1.0  0.86200  0.79500  0.04960  1.0000
  Cl  Cl6       1.0  0.13800  0.29500  0.45000  1.0000
  Cl  Cl7       1.0  0.13800  0.20500  0.95000  1.0000
  Cl  Cl8       1.0  0.86200  0.70500  0.55000  1.0000
  Cl  Cl9       1.0  0.10200  0.45100  0.18500  1.0000
  Cl  Cl10      1.0  0.89800  0.95100  0.31500  1.0000
  Cl  Cl11      1.0  0.89800  0.54900  0.81500  1.0000
  Cl  Cl12      1.0  0.10200  0.04920  0.68500  1.0000
  Cl  Cl13      1.0  0.50800  0.66100  0.17300  1.0000
  Cl  Cl14      1.0  0.49200  0.16100  0.32700  1.0000
  Cl  Cl15      1.0  0.49200  0.33900  0.82700  1.0000
  Cl  Cl16      1.0  0.50800  0.83900  0.67300  1.0000
  K   K1        1.0  0.79200  0.45100  0.31900  1.0000
  K   K2        1.0  0.20800  0.95100  0.18100  1.0000
  K   K3        1.0  0.20800  0.54900  0.68100  1.0000
  K   K4        1.0  0.79200  0.04850  0.81900  1.0000
