data_image0
_chemical_formula_structural       Cs4IrO4
_chemical_formula_sum              "Cs4 Ir1 O4"
_cell_length_a       6.1583
_cell_length_b       6.1583
_cell_length_c       6.6143
_cell_angle_alpha    104.862
_cell_angle_beta     104.862
_cell_angle_gamma    66.1512

_space_group_name_H-M_alt    "P 1"
_space_group_IT_number       1

loop_
  _space_group_symop_operation_xyz
  'x, y, z'

loop_
  _atom_site_type_symbol
  _atom_site_label
  _atom_site_symmetry_multiplicity
  _atom_site_fract_x
  _atom_site_fract_y
  _atom_site_fract_z
  _atom_site_occupancy
  Cs  Cs1       1.0  0.38500  0.38500  0.16200  1.0000
  Cs  Cs2       1.0  0.81000  0.81000  0.40600  1.0000
  Cs  Cs3       1.0  0.19000  0.19000  0.59400  1.0000
  Cs  Cs4       1.0  0.61500  0.61500  0.83800  1.0000
  Ir  Ir1       1.0  0.00000  0.00000  0.00000  1.0000
  O   O1        1.0  0.90300  0.31100  0.18500  1.0000
  O   O2        1.0  0.31100  0.90300  0.18500  1.0000
  O   O3        1.0  0.68900  0.09690  0.81500  1.0000
  O   O4        1.0  0.09690  0.68900  0.81500  1.0000
