data_image0
_chemical_formula_structural       CuGe6Y2
_chemical_formula_sum              "Cu1 Ge6 Y2"
_cell_length_a       4.08016
_cell_length_b       4.04719
_cell_length_c       10.8851
_cell_angle_alpha    79.2861
_cell_angle_beta     90
_cell_angle_gamma    90

_space_group_name_H-M_alt    "P 1"
_space_group_IT_number       1

loop_
  _space_group_symop_operation_xyz
  'x, y, z'

loop_
  _atom_site_type_symbol
  _atom_site_label
  _atom_site_symmetry_multiplicity
  _atom_site_fract_x
  _atom_site_fract_y
  _atom_site_fract_z
  _atom_site_occupancy
  Cu  Cu1       1.0  0.50000  0.77700  0.44600  1.0000
  Ge  Ge1       1.0  0.50000  0.45700  0.08520  1.0000
  Ge  Ge2       1.0  0.50000  0.88600  0.22900  1.0000
  Ge  Ge3       1.0  0.00000  0.71600  0.56800  1.0000
  Ge  Ge4       1.0  0.50000  0.21600  0.56900  1.0000
  Ge  Ge5       1.0  0.00000  0.60000  0.80100  1.0000
  Ge  Ge6       1.0  0.50000  0.09900  0.80200  1.0000
  Y   Y1        1.0  0.00000  0.99700  0.00662  1.0000
  Y   Y2        1.0  0.00000  0.33200  0.33600  1.0000
