data_image0
_chemical_formula_structural       Co4O8Rb10
_chemical_formula_sum              "Co4 O8 Rb10"
_cell_length_a       6.88151
_cell_length_b       9.11558
_cell_length_c       9.3816
_cell_angle_alpha    118.53
_cell_angle_beta     90.3224
_cell_angle_gamma    108.656

_space_group_name_H-M_alt    "P 1"
_space_group_IT_number       1

loop_
  _space_group_symop_operation_xyz
  'x, y, z'

loop_
  _atom_site_type_symbol
  _atom_site_label
  _atom_site_symmetry_multiplicity
  _atom_site_fract_x
  _atom_site_fract_y
  _atom_site_fract_z
  _atom_site_occupancy
  Co  Co1       1.0  0.38500  0.58200  0.97100  1.0000
  Co  Co2       1.0  0.61500  0.41800  0.02950  1.0000
  Co  Co3       1.0  0.01310  0.79000  0.57600  1.0000
  Co  Co4       1.0  0.98700  0.21000  0.42400  1.0000
  O   O1        1.0  0.19800  0.20600  0.31600  1.0000
  O   O2        1.0  0.80200  0.79400  0.68400  1.0000
  O   O3        1.0  0.68500  0.64400  0.05040  1.0000
  O   O4        1.0  0.31500  0.35600  0.95000  1.0000
  O   O5        1.0  0.76500  0.20500  0.51700  1.0000
  O   O6        1.0  0.23500  0.79500  0.48300  1.0000
  O   O7        1.0  0.30800  0.74200  0.95700  1.0000
  O   O8        1.0  0.69200  0.25800  0.04340  1.0000
  Rb  Rb1       1.0  0.37800  0.17000  0.61500  1.0000
  Rb  Rb2       1.0  0.62200  0.83000  0.38500  1.0000
  Rb  Rb3       1.0  0.62500  0.36500  0.36800  1.0000
  Rb  Rb4       1.0  0.37500  0.63500  0.63200  1.0000
  Rb  Rb5       1.0  0.26100  0.04340  0.97000  1.0000
  Rb  Rb6       1.0  0.73900  0.95700  0.03000  1.0000
  Rb  Rb7       1.0  0.10500  0.43700  0.22200  1.0000
  Rb  Rb8       1.0  0.89500  0.56300  0.77800  1.0000
  Rb  Rb9       1.0  0.10100  0.83700  0.22500  1.0000
  Rb  Rb10      1.0  0.89900  0.16300  0.77500  1.0000
