data_image0
_chemical_formula_structural       Co4K12O8
_chemical_formula_sum              "Co4 K12 O8"
_cell_length_a       11.7421
_cell_length_b       7.07003
_cell_length_c       5.87929
_cell_angle_alpha    90
_cell_angle_beta     90
_cell_angle_gamma    90

_space_group_name_H-M_alt    "P 1"
_space_group_IT_number       1

loop_
  _space_group_symop_operation_xyz
  'x, y, z'

loop_
  _atom_site_type_symbol
  _atom_site_label
  _atom_site_symmetry_multiplicity
  _atom_site_fract_x
  _atom_site_fract_y
  _atom_site_fract_z
  _atom_site_occupancy
  Co  Co1       1.0  0.11900  0.75000  0.17400  1.0000
  Co  Co2       1.0  0.38100  0.25000  0.67400  1.0000
  Co  Co3       1.0  0.61900  0.75000  0.32600  1.0000
  Co  Co4       1.0  0.88100  0.25000  0.82600  1.0000
  K   K1        1.0  0.59300  0.25000  0.29700  1.0000
  K   K2        1.0  0.90700  0.75000  0.79700  1.0000
  K   K3        1.0  0.09310  0.25000  0.20300  1.0000
  K   K4        1.0  0.40700  0.75000  0.70300  1.0000
  K   K5        1.0  0.36000  0.99900  0.16100  1.0000
  K   K6        1.0  0.14000  0.00059  0.66100  1.0000
  K   K7        1.0  0.86000  0.50100  0.33900  1.0000
  K   K8        1.0  0.64000  0.49900  0.83900  1.0000
  K   K9        1.0  0.64000  0.00059  0.83900  1.0000
  K   K10       1.0  0.86000  0.99900  0.33900  1.0000
  K   K11       1.0  0.14000  0.49900  0.66100  1.0000
  K   K12       1.0  0.36000  0.50100  0.16100  1.0000
  O   O1        1.0  0.52500  0.75000  0.09480  1.0000
  O   O2        1.0  0.97500  0.25000  0.59500  1.0000
  O   O3        1.0  0.02450  0.75000  0.40500  1.0000
  O   O4        1.0  0.47500  0.25000  0.90500  1.0000
  O   O5        1.0  0.72000  0.75000  0.54600  1.0000
  O   O6        1.0  0.78000  0.25000  0.04630  1.0000
  O   O7        1.0  0.22000  0.75000  0.95400  1.0000
  O   O8        1.0  0.28000  0.25000  0.45400  1.0000
