data_image0
_chemical_formula_structural       CrF6Mg
_chemical_formula_sum              "Cr1 F6 Mg1"
_cell_length_a       4.76058
_cell_length_b       4.76066
_cell_length_c       5.11549
_cell_angle_alpha    117.731
_cell_angle_beta     117.729
_cell_angle_gamma    60.0004

_space_group_name_H-M_alt    "P 1"
_space_group_IT_number       1

loop_
  _space_group_symop_operation_xyz
  'x, y, z'

loop_
  _atom_site_type_symbol
  _atom_site_label
  _atom_site_symmetry_multiplicity
  _atom_site_fract_x
  _atom_site_fract_y
  _atom_site_fract_z
  _atom_site_occupancy
  Cr  Cr1       1.0  0.00000  0.00000  0.00000  1.0000
  F   F1        1.0  0.76200  0.39100  0.24300  1.0000
  F   F2        1.0  0.09010  0.76200  0.24300  1.0000
  F   F3        1.0  0.39100  0.09010  0.24300  1.0000
  F   F4        1.0  0.60900  0.91000  0.75700  1.0000
  F   F5        1.0  0.91000  0.23800  0.75700  1.0000
  F   F6        1.0  0.23800  0.60900  0.75700  1.0000
  Mg  Mg1       1.0  0.50000  0.50000  0.50000  1.0000
