data_image0
_chemical_formula_structural       CeCsS2
_chemical_formula_sum              "Ce1 Cs1 S2"
_cell_length_a       8.44412
_cell_length_b       8.44412
_cell_length_c       8.44412
_cell_angle_alpha    29.5721
_cell_angle_beta     29.5721
_cell_angle_gamma    29.5721

_space_group_name_H-M_alt    "P 1"
_space_group_IT_number       1

loop_
  _space_group_symop_operation_xyz
  'x, y, z'

loop_
  _atom_site_type_symbol
  _atom_site_label
  _atom_site_symmetry_multiplicity
  _atom_site_fract_x
  _atom_site_fract_y
  _atom_site_fract_z
  _atom_site_occupancy
  Ce  Ce1       1.0  0.50000  0.50000  0.50000  1.0000
  Cs  Cs1       1.0  0.00000  0.00000  0.00000  1.0000
  S   S1        1.0  0.23000  0.23000  0.23000  1.0000
  S   S2        1.0  0.77000  0.77000  0.77000  1.0000
