data_image0
_chemical_formula_structural       Er4I5
_chemical_formula_sum              "Er4 I5"
_cell_length_a       3.93187
_cell_length_b       8.67024
_cell_length_c       9.42377
_cell_angle_alpha    103.041
_cell_angle_beta     102.041
_cell_angle_gamma    90

_space_group_name_H-M_alt    "P 1"
_space_group_IT_number       1

loop_
  _space_group_symop_operation_xyz
  'x, y, z'

loop_
  _atom_site_type_symbol
  _atom_site_label
  _atom_site_symmetry_multiplicity
  _atom_site_fract_x
  _atom_site_fract_y
  _atom_site_fract_z
  _atom_site_occupancy
  Er  Er1       1.0  0.00093  0.80200  0.00186  1.0000
  Er  Er2       1.0  0.63200  0.06640  0.26300  1.0000
  Er  Er3       1.0  0.36800  0.93400  0.73700  1.0000
  Er  Er4       1.0  0.99900  0.19800  0.99800  1.0000
  I   I1        1.0  0.50000  0.50000  0.00000  1.0000
  I   I2        1.0  0.16800  0.34700  0.33500  1.0000
  I   I3        1.0  0.17500  0.82400  0.35000  1.0000
  I   I4        1.0  0.82500  0.17600  0.65000  1.0000
  I   I5        1.0  0.83200  0.65300  0.66500  1.0000
