data_image0
_chemical_formula_structural       Ge4O14Rb12
_chemical_formula_sum              "Ge4 O14 Rb12"
_cell_length_a       6.67905
_cell_length_b       9.30516
_cell_length_c       9.29
_cell_angle_alpha    90
_cell_angle_beta     91.8037
_cell_angle_gamma    90

_space_group_name_H-M_alt    "P 1"
_space_group_IT_number       1

loop_
  _space_group_symop_operation_xyz
  'x, y, z'

loop_
  _atom_site_type_symbol
  _atom_site_label
  _atom_site_symmetry_multiplicity
  _atom_site_fract_x
  _atom_site_fract_y
  _atom_site_fract_z
  _atom_site_occupancy
  Ge  Ge1       1.0  0.95600  0.13900  0.63500  1.0000
  Ge  Ge2       1.0  0.54400  0.63900  0.86500  1.0000
  Ge  Ge3       1.0  0.04430  0.86100  0.36500  1.0000
  Ge  Ge4       1.0  0.45600  0.36100  0.13500  1.0000
  O   O1        1.0  0.57800  0.20800  0.06890  1.0000
  O   O2        1.0  0.92200  0.70800  0.43100  1.0000
  O   O3        1.0  0.42200  0.79200  0.93100  1.0000
  O   O4        1.0  0.07760  0.29200  0.56900  1.0000
  O   O5        1.0  0.69300  0.15800  0.64200  1.0000
  O   O6        1.0  0.80700  0.65800  0.85800  1.0000
  O   O7        1.0  0.30700  0.84200  0.35800  1.0000
  O   O8        1.0  0.19300  0.34200  0.14200  1.0000
  O   O9        1.0  0.06620  0.08190  0.79900  1.0000
  O   O10       1.0  0.43400  0.58200  0.70100  1.0000
  O   O11       1.0  0.93400  0.91800  0.20100  1.0000
  O   O12       1.0  0.56600  0.41800  0.29900  1.0000
  O   O13       1.0  0.00000  0.00000  0.50000  1.0000
  O   O14       1.0  0.50000  0.50000  0.00000  1.0000
  Rb  Rb1       1.0  0.88300  0.21500  0.28400  1.0000
  Rb  Rb2       1.0  0.61700  0.71500  0.21600  1.0000
  Rb  Rb3       1.0  0.11700  0.78500  0.71600  1.0000
  Rb  Rb4       1.0  0.38300  0.28500  0.78400  1.0000
  Rb  Rb5       1.0  0.39000  0.14700  0.42000  1.0000
  Rb  Rb6       1.0  0.11000  0.64700  0.08040  1.0000
  Rb  Rb7       1.0  0.61000  0.85300  0.58000  1.0000
  Rb  Rb8       1.0  0.89000  0.35300  0.92000  1.0000
  Rb  Rb9       1.0  0.25600  0.02280  0.05610  1.0000
  Rb  Rb10      1.0  0.24400  0.52300  0.44400  1.0000
  Rb  Rb11      1.0  0.74400  0.97700  0.94400  1.0000
  Rb  Rb12      1.0  0.75600  0.47700  0.55600  1.0000
