data_image0
_chemical_formula_structural       Cs2F6Pt
_chemical_formula_sum              "Cs2 F6 Pt1"
_cell_length_a       6.03618
_cell_length_b       6.03618
_cell_length_c       4.78622
_cell_angle_alpha    90
_cell_angle_beta     90.0001
_cell_angle_gamma    120

_space_group_name_H-M_alt    "P 1"
_space_group_IT_number       1

loop_
  _space_group_symop_operation_xyz
  'x, y, z'

loop_
  _atom_site_type_symbol
  _atom_site_label
  _atom_site_symmetry_multiplicity
  _atom_site_fract_x
  _atom_site_fract_y
  _atom_site_fract_z
  _atom_site_occupancy
  Cs  Cs1       1.0  0.66700  0.33300  0.29400  1.0000
  Cs  Cs2       1.0  0.33300  0.66700  0.70600  1.0000
  F   F1        1.0  0.68400  0.84200  0.22500  1.0000
  F   F2        1.0  0.15800  0.84200  0.22500  1.0000
  F   F3        1.0  0.15800  0.31600  0.22500  1.0000
  F   F4        1.0  0.84200  0.68400  0.77500  1.0000
  F   F5        1.0  0.84200  0.15800  0.77500  1.0000
  F   F6        1.0  0.31600  0.15800  0.77500  1.0000
  Pt  Pt1       1.0  0.00000  0.00000  0.00000  1.0000
