data_image0
_chemical_formula_structural       K2Mo8O12
_chemical_formula_sum              "K2 Mo8 O12"
_cell_length_a       9.59033
_cell_length_b       9.59033
_cell_length_c       2.87558
_cell_angle_alpha    90
_cell_angle_beta     90
_cell_angle_gamma    90

_space_group_name_H-M_alt    "P 1"
_space_group_IT_number       1

loop_
  _space_group_symop_operation_xyz
  'x, y, z'

loop_
  _atom_site_type_symbol
  _atom_site_label
  _atom_site_symmetry_multiplicity
  _atom_site_fract_x
  _atom_site_fract_y
  _atom_site_fract_z
  _atom_site_occupancy
  K   K1        1.0  0.50000  0.50000  0.50000  1.0000
  K   K2        1.0  0.00000  0.00000  0.50000  1.0000
  Mo  Mo1       1.0  0.14200  0.64200  0.50000  1.0000
  Mo  Mo2       1.0  0.85800  0.35800  0.50000  1.0000
  Mo  Mo3       1.0  0.64200  0.85800  0.50000  1.0000
  Mo  Mo4       1.0  0.35800  0.14200  0.50000  1.0000
  Mo  Mo5       1.0  0.60100  0.10100  0.99900  1.0000
  Mo  Mo6       1.0  0.39900  0.89900  0.99900  1.0000
  Mo  Mo7       1.0  0.10100  0.39900  0.00055  1.0000
  Mo  Mo8       1.0  0.89900  0.60100  0.00055  1.0000
  O   O1        1.0  0.45400  0.26100  0.00000  1.0000
  O   O2        1.0  0.54600  0.73900  0.00000  1.0000
  O   O3        1.0  0.26100  0.54600  0.00048  1.0000
  O   O4        1.0  0.73900  0.45400  0.00048  1.0000
  O   O5        1.0  0.23900  0.04570  0.00000  1.0000
  O   O6        1.0  0.76100  0.95400  0.00000  1.0000
  O   O7        1.0  0.04570  0.76100  0.00049  1.0000
  O   O8        1.0  0.95400  0.23900  0.00049  1.0000
  O   O9        1.0  0.20700  0.29300  0.50000  1.0000
  O   O10       1.0  0.79300  0.70700  0.50000  1.0000
  O   O11       1.0  0.29300  0.79300  0.50000  1.0000
  O   O12       1.0  0.70700  0.20700  0.50000  1.0000
