data_image0
_chemical_formula_structural       N2Se3Tb4
_chemical_formula_sum              "N2 Se3 Tb4"
_cell_length_a       3.94076
_cell_length_b       6.96003
_cell_length_c       8.1821
_cell_angle_alpha    93.6878
_cell_angle_beta     103.935
_cell_angle_gamma    73.5547

_space_group_name_H-M_alt    "P 1"
_space_group_IT_number       1

loop_
  _space_group_symop_operation_xyz
  'x, y, z'

loop_
  _atom_site_type_symbol
  _atom_site_label
  _atom_site_symmetry_multiplicity
  _atom_site_fract_x
  _atom_site_fract_y
  _atom_site_fract_z
  _atom_site_occupancy
  N   N1        1.0  0.71300  0.93600  0.36200  1.0000
  N   N2        1.0  0.28700  0.06370  0.63800  1.0000
  Se  Se1       1.0  0.00000  0.00000  0.00000  1.0000
  Se  Se2       1.0  0.39400  0.44100  0.22800  1.0000
  Se  Se3       1.0  0.60600  0.55900  0.77200  1.0000
  Tb  Tb1       1.0  0.70800  0.73300  0.15000  1.0000
  Tb  Tb2       1.0  0.11600  0.12800  0.36100  1.0000
  Tb  Tb3       1.0  0.88400  0.87200  0.63900  1.0000
  Tb  Tb4       1.0  0.29200  0.26700  0.85000  1.0000
