data_image0
_chemical_formula_structural       H16Li4N4O16S4
_chemical_formula_sum              "H16 Li4 N4 O16 S4"
_cell_length_a       5.09815
_cell_length_b       8.70604
_cell_length_c       8.24025
_cell_angle_alpha    90
_cell_angle_beta     90
_cell_angle_gamma    90

_space_group_name_H-M_alt    "P 1"
_space_group_IT_number       1

loop_
  _space_group_symop_operation_xyz
  'x, y, z'

loop_
  _atom_site_type_symbol
  _atom_site_label
  _atom_site_symmetry_multiplicity
  _atom_site_fract_x
  _atom_site_fract_y
  _atom_site_fract_z
  _atom_site_occupancy
  H   H1        1.0  0.29800  0.85700  0.49100  1.0000
  H   H2        1.0  0.79800  0.14300  0.50900  1.0000
  H   H3        1.0  0.36400  0.81300  0.08390  1.0000
  H   H4        1.0  0.86400  0.18700  0.91600  1.0000
  H   H5        1.0  0.36400  0.68700  0.58400  1.0000
  H   H6        1.0  0.86400  0.31300  0.41600  1.0000
  H   H7        1.0  0.05860  0.77000  0.02640  1.0000
  H   H8        1.0  0.55900  0.23000  0.97400  1.0000
  H   H9        1.0  0.05860  0.73000  0.52600  1.0000
  H   H10       1.0  0.55900  0.27000  0.47400  1.0000
  H   H11       1.0  0.29200  0.81300  0.88500  1.0000
  H   H12       1.0  0.79200  0.18700  0.11500  1.0000
  H   H13       1.0  0.29200  0.68700  0.38500  1.0000
  H   H14       1.0  0.79200  0.31300  0.61500  1.0000
  H   H15       1.0  0.29800  0.64300  0.99100  1.0000
  H   H16       1.0  0.79800  0.35700  0.00915  1.0000
  Li  Li1       1.0  0.76700  0.58100  0.19300  1.0000
  Li  Li2       1.0  0.26700  0.41900  0.80700  1.0000
  Li  Li3       1.0  0.76700  0.91900  0.69300  1.0000
  Li  Li4       1.0  0.26700  0.08090  0.30700  1.0000
  N   N1        1.0  0.25300  0.75900  0.99500  1.0000
  N   N2        1.0  0.75300  0.24100  0.00533  1.0000
  N   N3        1.0  0.25300  0.74100  0.49500  1.0000
  N   N4        1.0  0.75300  0.25900  0.50500  1.0000
  O   O1        1.0  0.49900  0.56300  0.71600  1.0000
  O   O2        1.0  0.99900  0.06320  0.78400  1.0000
  O   O3        1.0  0.49900  0.93700  0.21600  1.0000
  O   O4        1.0  0.38600  0.27500  0.26400  1.0000
  O   O5        1.0  0.88600  0.72500  0.73600  1.0000
  O   O6        1.0  0.38600  0.22500  0.76400  1.0000
  O   O7        1.0  0.88600  0.77500  0.23600  1.0000
  O   O8        1.0  0.24200  0.42300  0.03350  1.0000
  O   O9        1.0  0.74200  0.57700  0.96600  1.0000
  O   O10       1.0  0.24200  0.07670  0.53400  1.0000
  O   O11       1.0  0.74200  0.92300  0.46600  1.0000
  O   O12       1.0  0.99900  0.43700  0.28400  1.0000
  O   O13       1.0  0.92900  0.05020  0.23300  1.0000
  O   O14       1.0  0.42900  0.95000  0.76700  1.0000
  O   O15       1.0  0.92900  0.45000  0.73300  1.0000
  O   O16       1.0  0.42900  0.55000  0.26700  1.0000
  S   S1        1.0  0.26400  0.42000  0.21200  1.0000
  S   S2        1.0  0.76400  0.58000  0.78800  1.0000
  S   S3        1.0  0.26400  0.08000  0.71200  1.0000
  S   S4        1.0  0.76400  0.92000  0.28800  1.0000
