data_image0
_chemical_formula_structural       Ba7Ir6O19
_chemical_formula_sum              "Ba7 Ir6 O19"
_cell_length_a       7.94814
_cell_length_b       7.94814
_cell_length_c       10.9177
_cell_angle_alpha    80.5663
_cell_angle_beta     99.4337
_cell_angle_gamma    138.019

_space_group_name_H-M_alt    "P 1"
_space_group_IT_number       1

loop_
  _space_group_symop_operation_xyz
  'x, y, z'

loop_
  _atom_site_type_symbol
  _atom_site_label
  _atom_site_symmetry_multiplicity
  _atom_site_fract_x
  _atom_site_fract_y
  _atom_site_fract_z
  _atom_site_occupancy
  Ba  Ba1       1.0  0.50000  0.50000  0.50000  1.0000
  Ba  Ba2       1.0  0.57100  0.42900  0.16300  1.0000
  Ba  Ba3       1.0  0.42900  0.57100  0.83700  1.0000
  Ba  Ba4       1.0  0.85500  0.14500  0.05280  1.0000
  Ba  Ba5       1.0  0.14500  0.85500  0.94700  1.0000
  Ba  Ba6       1.0  0.80000  0.20000  0.40500  1.0000
  Ba  Ba7       1.0  0.20000  0.80000  0.59500  1.0000
  Ir  Ir1       1.0  0.02320  0.97700  0.32300  1.0000
  Ir  Ir2       1.0  0.97700  0.02320  0.67700  1.0000
  Ir  Ir3       1.0  0.34300  0.65700  0.21500  1.0000
  Ir  Ir4       1.0  0.65700  0.34300  0.78500  1.0000
  Ir  Ir5       1.0  0.18200  0.81800  0.26600  1.0000
  Ir  Ir6       1.0  0.81800  0.18200  0.73400  1.0000
  O   O1        1.0  0.00000  1.00000  0.50000  1.0000
  O   O2        1.0  0.70100  0.29900  0.61200  1.0000
  O   O3        1.0  0.29900  0.70100  0.38800  1.0000
  O   O4        1.0  0.05390  0.94600  0.14700  1.0000
  O   O5        1.0  0.94600  0.05390  0.85300  1.0000
  O   O6        1.0  0.39400  0.60600  0.05890  1.0000
  O   O7        1.0  0.60600  0.39400  0.94100  1.0000
  O   O8        1.0  0.67900  0.82300  0.29100  1.0000
  O   O9        1.0  0.82300  0.67900  0.70900  1.0000
  O   O10       1.0  0.32100  0.17700  0.70900  1.0000
  O   O11       1.0  0.17700  0.32100  0.29100  1.0000
  O   O12       1.0  0.00425  0.52400  0.16100  1.0000
  O   O13       1.0  0.52400  0.00425  0.83900  1.0000
  O   O14       1.0  0.99600  0.47600  0.83900  1.0000
  O   O15       1.0  0.47600  0.99600  0.16100  1.0000
  O   O16       1.0  0.36400  0.11100  0.37200  1.0000
  O   O17       1.0  0.11100  0.36400  0.62800  1.0000
  O   O18       1.0  0.63600  0.88900  0.62800  1.0000
  O   O19       1.0  0.88900  0.63600  0.37200  1.0000
