data_image0
_chemical_formula_structural       H16I2N8P2
_chemical_formula_sum              "H16 I2 N8 P2"
_cell_length_a       8.26482
_cell_length_b       8.26482
_cell_length_c       4.21358
_cell_angle_alpha    90
_cell_angle_beta     90
_cell_angle_gamma    90

_space_group_name_H-M_alt    "P 1"
_space_group_IT_number       1

loop_
  _space_group_symop_operation_xyz
  'x, y, z'

loop_
  _atom_site_type_symbol
  _atom_site_label
  _atom_site_symmetry_multiplicity
  _atom_site_fract_x
  _atom_site_fract_y
  _atom_site_fract_z
  _atom_site_occupancy
  H   H1        1.0  0.16300  0.98500  0.25100  1.0000
  H   H2        1.0  0.33700  0.51500  0.25100  1.0000
  H   H3        1.0  0.16300  0.51500  0.74900  1.0000
  H   H4        1.0  0.33700  0.98500  0.74900  1.0000
  H   H5        1.0  0.51500  0.33700  0.74900  1.0000
  H   H6        1.0  0.98500  0.16300  0.74900  1.0000
  H   H7        1.0  0.98500  0.33700  0.25100  1.0000
  H   H8        1.0  0.51500  0.16300  0.25100  1.0000
  H   H9        1.0  0.83700  0.01460  0.74900  1.0000
  H   H10       1.0  0.66300  0.48500  0.74900  1.0000
  H   H11       1.0  0.83700  0.48500  0.25100  1.0000
  H   H12       1.0  0.66300  0.01460  0.25100  1.0000
  H   H13       1.0  0.48500  0.66300  0.25100  1.0000
  H   H14       1.0  0.01460  0.83700  0.25100  1.0000
  H   H15       1.0  0.01460  0.66300  0.74900  1.0000
  H   H16       1.0  0.48500  0.83700  0.74900  1.0000
  I   I1        1.0  0.25000  0.25000  0.00000  1.0000
  I   I2        1.0  0.75000  0.75000  0.00000  1.0000
  N   N1        1.0  0.12500  0.62500  0.66700  1.0000
  N   N2        1.0  0.37500  0.87500  0.66700  1.0000
  N   N3        1.0  0.12500  0.87500  0.33300  1.0000
  N   N4        1.0  0.37500  0.62500  0.33300  1.0000
  N   N5        1.0  0.87500  0.37500  0.33300  1.0000
  N   N6        1.0  0.62500  0.12500  0.33300  1.0000
  N   N7        1.0  0.62500  0.37500  0.66700  1.0000
  N   N8        1.0  0.87500  0.12500  0.66700  1.0000
  P   P1        1.0  0.75000  0.25000  0.50000  1.0000
  P   P2        1.0  0.25000  0.75000  0.50000  1.0000
