data_image0
_chemical_formula_structural       Al4Li4O48P16
_chemical_formula_sum              "Al4 Li4 O48 P16"
_cell_length_a       12.3865
_cell_length_b       7.80886
_cell_length_c       8.20567
_cell_angle_alpha    90
_cell_angle_beta     90
_cell_angle_gamma    90

_space_group_name_H-M_alt    "P 1"
_space_group_IT_number       1

loop_
  _space_group_symop_operation_xyz
  'x, y, z'

loop_
  _atom_site_type_symbol
  _atom_site_label
  _atom_site_symmetry_multiplicity
  _atom_site_fract_x
  _atom_site_fract_y
  _atom_site_fract_z
  _atom_site_occupancy
  Al  Al1       1.0  0.00000  0.64400  0.25000  1.0000
  Al  Al2       1.0  0.50000  0.85600  0.75000  1.0000
  Al  Al3       1.0  0.00000  0.35600  0.75000  1.0000
  Al  Al4       1.0  0.50000  0.14400  0.25000  1.0000
  Li  Li1       1.0  0.00000  0.99900  0.25000  1.0000
  Li  Li2       1.0  0.50000  0.50100  0.75000  1.0000
  Li  Li3       1.0  0.00000  0.00060  0.75000  1.0000
  Li  Li4       1.0  0.50000  0.49900  0.25000  1.0000
  O   O1        1.0  0.37300  0.42000  0.83400  1.0000
  O   O2        1.0  0.12700  0.08050  0.33400  1.0000
  O   O3        1.0  0.87300  0.08050  0.16600  1.0000
  O   O4        1.0  0.18000  0.63400  0.94100  1.0000
  O   O5        1.0  0.32000  0.86600  0.44100  1.0000
  O   O6        1.0  0.62900  0.16300  0.13400  1.0000
  O   O7        1.0  0.87100  0.33700  0.63400  1.0000
  O   O8        1.0  0.12900  0.33700  0.86600  1.0000
  O   O9        1.0  0.37100  0.16300  0.36600  1.0000
  O   O10       1.0  0.68000  0.86600  0.05870  1.0000
  O   O11       1.0  0.82000  0.63400  0.55900  1.0000
  O   O12       1.0  0.45000  0.31500  0.10700  1.0000
  O   O13       1.0  0.04990  0.18500  0.60700  1.0000
  O   O14       1.0  0.62900  0.83700  0.63400  1.0000
  O   O15       1.0  0.87100  0.66300  0.13400  1.0000
  O   O16       1.0  0.12900  0.66300  0.36600  1.0000
  O   O17       1.0  0.37100  0.83700  0.86600  1.0000
  O   O18       1.0  0.32000  0.13400  0.94100  1.0000
  O   O19       1.0  0.18000  0.36600  0.44100  1.0000
  O   O20       1.0  0.82000  0.36600  0.05870  1.0000
  O   O21       1.0  0.68000  0.13400  0.55900  1.0000
  O   O22       1.0  0.37300  0.58000  0.33400  1.0000
  O   O23       1.0  0.12700  0.92000  0.83400  1.0000
  O   O24       1.0  0.87300  0.92000  0.66600  1.0000
  O   O25       1.0  0.62700  0.58000  0.16600  1.0000
  O   O26       1.0  0.62700  0.42000  0.66600  1.0000
  O   O27       1.0  0.75800  0.11100  0.90700  1.0000
  O   O28       1.0  0.74200  0.38900  0.40700  1.0000
  O   O29       1.0  0.25800  0.38900  0.09320  1.0000
  O   O30       1.0  0.24200  0.11100  0.59300  1.0000
  O   O31       1.0  0.24200  0.88900  0.09320  1.0000
  O   O32       1.0  0.25800  0.61100  0.59300  1.0000
  O   O33       1.0  0.74200  0.61100  0.90700  1.0000
  O   O34       1.0  0.75800  0.88900  0.40700  1.0000
  O   O35       1.0  0.56300  0.03720  0.86600  1.0000
  O   O36       1.0  0.93700  0.46300  0.36600  1.0000
  O   O37       1.0  0.06270  0.46300  0.13400  1.0000
  O   O38       1.0  0.43700  0.03720  0.63400  1.0000
  O   O39       1.0  0.43700  0.96300  0.13400  1.0000
  O   O40       1.0  0.06270  0.53700  0.63400  1.0000
  O   O41       1.0  0.93700  0.53700  0.86600  1.0000
  O   O42       1.0  0.56300  0.96300  0.36600  1.0000
  O   O43       1.0  0.45000  0.68500  0.60700  1.0000
  O   O44       1.0  0.04990  0.81500  0.10700  1.0000
  O   O45       1.0  0.95000  0.81500  0.39300  1.0000
  O   O46       1.0  0.55000  0.68500  0.89300  1.0000
  O   O47       1.0  0.55000  0.31500  0.39300  1.0000
  O   O48       1.0  0.95000  0.18500  0.89300  1.0000
  P   P1        1.0  0.15000  0.54900  0.50900  1.0000
  P   P2        1.0  0.35000  0.95100  0.00907  1.0000
  P   P3        1.0  0.35000  0.04930  0.50900  1.0000
  P   P4        1.0  0.15000  0.45100  0.00907  1.0000
  P   P5        1.0  0.85000  0.45100  0.49100  1.0000
  P   P6        1.0  0.65000  0.04930  0.99100  1.0000
  P   P7        1.0  0.85000  0.54900  0.99100  1.0000
  P   P8        1.0  0.65000  0.95100  0.49100  1.0000
  P   P9        1.0  0.35800  0.67800  0.48600  1.0000
  P   P10       1.0  0.14200  0.82200  0.98600  1.0000
  P   P11       1.0  0.85800  0.82200  0.51400  1.0000
  P   P12       1.0  0.64200  0.67800  0.01370  1.0000
  P   P13       1.0  0.64200  0.32200  0.51400  1.0000
  P   P14       1.0  0.85800  0.17800  0.01370  1.0000
  P   P15       1.0  0.14200  0.17800  0.48600  1.0000
  P   P16       1.0  0.35800  0.32200  0.98600  1.0000
