data_image0
_chemical_formula_structural       Br8H16Li16N8
_chemical_formula_sum              "Br8 H16 Li16 N8"
_cell_length_a       11.8151
_cell_length_b       7.5389
_cell_length_c       7.40158
_cell_angle_alpha    90
_cell_angle_beta     90
_cell_angle_gamma    90

_space_group_name_H-M_alt    "P 1"
_space_group_IT_number       1

loop_
  _space_group_symop_operation_xyz
  'x, y, z'

loop_
  _atom_site_type_symbol
  _atom_site_label
  _atom_site_symmetry_multiplicity
  _atom_site_fract_x
  _atom_site_fract_y
  _atom_site_fract_z
  _atom_site_occupancy
  Br  Br1       1.0  0.69100  0.75000  0.36900  1.0000
  Br  Br2       1.0  0.80900  0.25000  0.86900  1.0000
  Br  Br3       1.0  0.19100  0.75000  0.13100  1.0000
  Br  Br4       1.0  0.30900  0.25000  0.63100  1.0000
  Br  Br5       1.0  0.80900  0.75000  0.86900  1.0000
  Br  Br6       1.0  0.69100  0.25000  0.36900  1.0000
  Br  Br7       1.0  0.30900  0.75000  0.63100  1.0000
  Br  Br8       1.0  0.19100  0.25000  0.13100  1.0000
  H   H1        1.0  0.19300  0.50000  0.12600  1.0000
  H   H2        1.0  0.30700  0.50000  0.62600  1.0000
  H   H3        1.0  0.69300  0.00001  0.37400  1.0000
  H   H4        1.0  0.80700  0.00000  0.87400  1.0000
  H   H5        1.0  0.80700  0.50000  0.87400  1.0000
  H   H6        1.0  0.69300  0.50000  0.37400  1.0000
  H   H7        1.0  0.30700  0.00000  0.62600  1.0000
  H   H8        1.0  0.19300  0.00001  0.12600  1.0000
  H   H9        1.0  0.42400  0.50000  0.30300  1.0000
  H   H10       1.0  0.07570  0.50000  0.80300  1.0000
  H   H11       1.0  0.92400  0.00000  0.19700  1.0000
  H   H12       1.0  0.57600  0.00007  0.69700  1.0000
  H   H13       1.0  0.57600  0.50000  0.69700  1.0000
  H   H14       1.0  0.92400  0.50000  0.19700  1.0000
  H   H15       1.0  0.07570  0.00007  0.80300  1.0000
  H   H16       1.0  0.42400  0.00000  0.30300  1.0000
  Li  Li1       1.0  0.06090  0.50000  0.29700  1.0000
  Li  Li2       1.0  0.43900  0.50000  0.79700  1.0000
  Li  Li3       1.0  0.56100  0.00000  0.20300  1.0000
  Li  Li4       1.0  0.93900  0.00011  0.70300  1.0000
  Li  Li5       1.0  0.93900  0.50000  0.70300  1.0000
  Li  Li6       1.0  0.56100  0.50000  0.20300  1.0000
  Li  Li7       1.0  0.43900  0.00011  0.79700  1.0000
  Li  Li8       1.0  0.06090  0.00000  0.29700  1.0000
  Li  Li9       1.0  0.88400  0.75000  0.20300  1.0000
  Li  Li10      1.0  0.61600  0.25000  0.70300  1.0000
  Li  Li11      1.0  0.38400  0.75000  0.29700  1.0000
  Li  Li12      1.0  0.11600  0.25000  0.79700  1.0000
  Li  Li13      1.0  0.61600  0.75000  0.70300  1.0000
  Li  Li14      1.0  0.88400  0.25000  0.20300  1.0000
  Li  Li15      1.0  0.11600  0.75000  0.79700  1.0000
  Li  Li16      1.0  0.38400  0.25000  0.29700  1.0000
  N   N1        1.0  0.00000  0.32800  0.50000  1.0000
  N   N2        1.0  0.50000  0.67200  0.00000  1.0000
  N   N3        1.0  0.50000  0.17200  0.00019  1.0000
  N   N4        1.0  0.00005  0.82800  0.50000  1.0000
  N   N5        1.0  0.00005  0.67200  0.50000  1.0000
  N   N6        1.0  0.50000  0.32800  0.00019  1.0000
  N   N7        1.0  0.50000  0.82800  0.00000  1.0000
  N   N8        1.0  0.00000  0.17200  0.50000  1.0000
