data_image0
_chemical_formula_structural       Co4K8O8
_chemical_formula_sum              "Co4 K8 O8"
_cell_length_a       6.30417
_cell_length_b       9.33165
_cell_length_c       6.74935
_cell_angle_alpha    90
_cell_angle_beta     115.737
_cell_angle_gamma    90

_space_group_name_H-M_alt    "P 1"
_space_group_IT_number       1

loop_
  _space_group_symop_operation_xyz
  'x, y, z'

loop_
  _atom_site_type_symbol
  _atom_site_label
  _atom_site_symmetry_multiplicity
  _atom_site_fract_x
  _atom_site_fract_y
  _atom_site_fract_z
  _atom_site_occupancy
  Co  Co1       1.0  0.70500  0.57200  0.09100  1.0000
  Co  Co2       1.0  0.29500  0.07250  0.40900  1.0000
  Co  Co3       1.0  0.29500  0.42800  0.90900  1.0000
  Co  Co4       1.0  0.70500  0.92800  0.59100  1.0000
  K   K1        1.0  0.26500  0.73300  0.14800  1.0000
  K   K2        1.0  0.73500  0.23300  0.35200  1.0000
  K   K3        1.0  0.73500  0.26700  0.85200  1.0000
  K   K4        1.0  0.26500  0.76700  0.64800  1.0000
  K   K5        1.0  0.78600  0.91500  0.10000  1.0000
  K   K6        1.0  0.21400  0.41500  0.40000  1.0000
  K   K7        1.0  0.21400  0.08520  0.90000  1.0000
  K   K8        1.0  0.78600  0.58500  0.60000  1.0000
  O   O1        1.0  0.04060  0.15600  0.21200  1.0000
  O   O2        1.0  0.95900  0.65600  0.28800  1.0000
  O   O3        1.0  0.95900  0.84400  0.78800  1.0000
  O   O4        1.0  0.04060  0.34400  0.71200  1.0000
  O   O5        1.0  0.50900  0.52400  0.80100  1.0000
  O   O6        1.0  0.49100  0.02400  0.69900  1.0000
  O   O7        1.0  0.49100  0.47600  0.19900  1.0000
  O   O8        1.0  0.50900  0.97600  0.30100  1.0000
