data_image0
_chemical_formula_structural       Cu2In2O16W4
_chemical_formula_sum              "Cu2 In2 O16 W4"
_cell_length_a       7.29185
_cell_length_b       7.29343
_cell_length_c       4.90224
_cell_angle_alpha    89.3676
_cell_angle_beta     90.6409
_cell_angle_gamma    79.9731

_space_group_name_H-M_alt    "P 1"
_space_group_IT_number       1

loop_
  _space_group_symop_operation_xyz
  'x, y, z'

loop_
  _atom_site_type_symbol
  _atom_site_label
  _atom_site_symmetry_multiplicity
  _atom_site_fract_x
  _atom_site_fract_y
  _atom_site_fract_z
  _atom_site_occupancy
  Cu  Cu1       1.0  0.34000  0.34100  0.25000  1.0000
  Cu  Cu2       1.0  0.65900  0.65900  0.75000  1.0000
  In  In1       1.0  0.84100  0.84100  0.25000  1.0000
  In  In2       1.0  0.15900  0.15900  0.75000  1.0000
  O   O1        1.0  0.81300  0.09280  0.44900  1.0000
  O   O2        1.0  0.09290  0.81300  0.05120  1.0000
  O   O3        1.0  0.18700  0.90700  0.55100  1.0000
  O   O4        1.0  0.90700  0.18700  0.94900  1.0000
  O   O5        1.0  0.58600  0.31100  0.06680  1.0000
  O   O6        1.0  0.31100  0.58600  0.43300  1.0000
  O   O7        1.0  0.41400  0.68900  0.93300  1.0000
  O   O8        1.0  0.68900  0.41400  0.56700  1.0000
  O   O9        1.0  0.57400  0.81300  0.41100  1.0000
  O   O10       1.0  0.81200  0.57300  0.08850  1.0000
  O   O11       1.0  0.42700  0.18800  0.58800  1.0000
  O   O12       1.0  0.18700  0.42600  0.91100  1.0000
  O   O13       1.0  0.31900  0.06470  0.10100  1.0000
  O   O14       1.0  0.06460  0.31900  0.39900  1.0000
  O   O15       1.0  0.68100  0.93500  0.89900  1.0000
  O   O16       1.0  0.93500  0.68100  0.60100  1.0000
  W   W1        1.0  0.35000  0.83200  0.24600  1.0000
  W   W2        1.0  0.83200  0.35000  0.25400  1.0000
  W   W3        1.0  0.65000  0.16800  0.75400  1.0000
  W   W4        1.0  0.16800  0.65000  0.74600  1.0000
