data_image0
_chemical_formula_structural       Nb12Ni12O2
_chemical_formula_sum              "Nb12 Ni12 O2"
_cell_length_a       7.84267
_cell_length_b       7.84267
_cell_length_c       7.84267
_cell_angle_alpha    60
_cell_angle_beta     60
_cell_angle_gamma    60

_space_group_name_H-M_alt    "P 1"
_space_group_IT_number       1

loop_
  _space_group_symop_operation_xyz
  'x, y, z'

loop_
  _atom_site_type_symbol
  _atom_site_label
  _atom_site_symmetry_multiplicity
  _atom_site_fract_x
  _atom_site_fract_y
  _atom_site_fract_z
  _atom_site_occupancy
  Nb  Nb1       1.0  0.79800  0.20200  0.20200  1.0000
  Nb  Nb2       1.0  0.20200  0.79800  0.79800  1.0000
  Nb  Nb3       1.0  0.20200  0.79800  0.20200  1.0000
  Nb  Nb4       1.0  0.20200  0.20200  0.79800  1.0000
  Nb  Nb5       1.0  0.79800  0.20200  0.79800  1.0000
  Nb  Nb6       1.0  0.79800  0.79800  0.20200  1.0000
  Nb  Nb7       1.0  0.04840  0.45200  0.04840  1.0000
  Nb  Nb8       1.0  0.45200  0.04840  0.45200  1.0000
  Nb  Nb9       1.0  0.45200  0.04840  0.04840  1.0000
  Nb  Nb10      1.0  0.04840  0.04840  0.45200  1.0000
  Nb  Nb11      1.0  0.04840  0.45200  0.45200  1.0000
  Nb  Nb12      1.0  0.45200  0.45200  0.04840  1.0000
  Ni  Ni1       1.0  0.62500  0.62500  0.62500  1.0000
  Ni  Ni2       1.0  0.62500  0.62500  0.12500  1.0000
  Ni  Ni3       1.0  0.12500  0.62500  0.62500  1.0000
  Ni  Ni4       1.0  0.62500  0.12500  0.62500  1.0000
  Ni  Ni5       1.0  0.83000  0.83000  0.83000  1.0000
  Ni  Ni6       1.0  0.83000  0.83000  0.51000  1.0000
  Ni  Ni7       1.0  0.51000  0.83000  0.83000  1.0000
  Ni  Ni8       1.0  0.83000  0.51000  0.83000  1.0000
  Ni  Ni9       1.0  0.42000  0.42000  0.42000  1.0000
  Ni  Ni10      1.0  0.42000  0.42000  0.74000  1.0000
  Ni  Ni11      1.0  0.42000  0.74000  0.42000  1.0000
  Ni  Ni12      1.0  0.74000  0.42000  0.42000  1.0000
  O   O1        1.0  0.00000  0.00000  0.00000  1.0000
  O   O2        1.0  0.25000  0.25000  0.25000  1.0000
