data_image0
_chemical_formula_structural       Eu8O20Ti4
_chemical_formula_sum              "Eu8 O20 Ti4"
_cell_length_a       10.3629
_cell_length_b       11.2654
_cell_length_c       3.80891
_cell_angle_alpha    90
_cell_angle_beta     90
_cell_angle_gamma    90

_space_group_name_H-M_alt    "P 1"
_space_group_IT_number       1

loop_
  _space_group_symop_operation_xyz
  'x, y, z'

loop_
  _atom_site_type_symbol
  _atom_site_label
  _atom_site_symmetry_multiplicity
  _atom_site_fract_x
  _atom_site_fract_y
  _atom_site_fract_z
  _atom_site_occupancy
  Eu  Eu1       1.0  0.13000  0.06830  0.25000  1.0000
  Eu  Eu2       1.0  0.37000  0.56800  0.75000  1.0000
  Eu  Eu3       1.0  0.63000  0.43200  0.25000  1.0000
  Eu  Eu4       1.0  0.87000  0.93200  0.75000  1.0000
  Eu  Eu5       1.0  0.39800  0.21000  0.75000  1.0000
  Eu  Eu6       1.0  0.10200  0.71000  0.25000  1.0000
  Eu  Eu7       1.0  0.89800  0.29000  0.75000  1.0000
  Eu  Eu8       1.0  0.60200  0.79000  0.25000  1.0000
  O   O1        1.0  0.00938  0.36500  0.25000  1.0000
  O   O2        1.0  0.49100  0.86500  0.75000  1.0000
  O   O3        1.0  0.50900  0.13500  0.25000  1.0000
  O   O4        1.0  0.99100  0.63500  0.75000  1.0000
  O   O5        1.0  0.26100  0.24000  0.25000  1.0000
  O   O6        1.0  0.23900  0.74000  0.75000  1.0000
  O   O7        1.0  0.76100  0.26000  0.25000  1.0000
  O   O8        1.0  0.73900  0.76000  0.75000  1.0000
  O   O9        1.0  0.22800  0.39000  0.75000  1.0000
  O   O10       1.0  0.27200  0.89000  0.25000  1.0000
  O   O11       1.0  0.72800  0.11000  0.75000  1.0000
  O   O12       1.0  0.77200  0.61000  0.25000  1.0000
  O   O13       1.0  0.25900  0.04600  0.75000  1.0000
  O   O14       1.0  0.24100  0.54600  0.25000  1.0000
  O   O15       1.0  0.75900  0.45400  0.75000  1.0000
  O   O16       1.0  0.74100  0.95400  0.25000  1.0000
  O   O17       1.0  0.00148  0.10700  0.75000  1.0000
  O   O18       1.0  0.49900  0.60700  0.25000  1.0000
  O   O19       1.0  0.50100  0.39300  0.75000  1.0000
  O   O20       1.0  0.99900  0.89300  0.25000  1.0000
  Ti  Ti1       1.0  0.17900  0.38700  0.25000  1.0000
  Ti  Ti2       1.0  0.32100  0.88700  0.75000  1.0000
  Ti  Ti3       1.0  0.67900  0.11300  0.25000  1.0000
  Ti  Ti4       1.0  0.82100  0.61300  0.75000  1.0000
