data_image0
_chemical_formula_structural       Cl18In2Li2Nb6
_chemical_formula_sum              "Cl18 In2 Li2 Nb6"
_cell_length_a       9.26408
_cell_length_b       9.29703
_cell_length_c       9.30677
_cell_angle_alpha    119.274
_cell_angle_beta     96.2477
_cell_angle_gamma    105.431

_space_group_name_H-M_alt    "P 1"
_space_group_IT_number       1

loop_
  _space_group_symop_operation_xyz
  'x, y, z'

loop_
  _atom_site_type_symbol
  _atom_site_label
  _atom_site_symmetry_multiplicity
  _atom_site_fract_x
  _atom_site_fract_y
  _atom_site_fract_z
  _atom_site_occupancy
  Cl  Cl1       1.0  0.66500  0.67400  0.17200  1.0000
  Cl  Cl2       1.0  0.00126  0.72900  0.65400  1.0000
  Cl  Cl3       1.0  0.99900  0.27100  0.34600  1.0000
  Cl  Cl4       1.0  0.00820  0.42300  0.76700  1.0000
  Cl  Cl5       1.0  0.99200  0.57700  0.23300  1.0000
  Cl  Cl6       1.0  0.33300  0.56900  0.66100  1.0000
  Cl  Cl7       1.0  0.66700  0.43100  0.33900  1.0000
  Cl  Cl8       1.0  0.67000  0.94100  0.03180  1.0000
  Cl  Cl9       1.0  0.33000  0.05930  0.96800  1.0000
  Cl  Cl10      1.0  0.67400  0.82900  0.60000  1.0000
  Cl  Cl11      1.0  0.32600  0.17100  0.40000  1.0000
  Cl  Cl12      1.0  0.00875  0.15200  0.92300  1.0000
  Cl  Cl13      1.0  0.99100  0.84800  0.07690  1.0000
  Cl  Cl14      1.0  0.67400  0.09830  0.44300  1.0000
  Cl  Cl15      1.0  0.32600  0.90200  0.55700  1.0000
  Cl  Cl16      1.0  0.69500  0.25000  0.84700  1.0000
  Cl  Cl17      1.0  0.30500  0.75000  0.15300  1.0000
  Cl  Cl18      1.0  0.33500  0.32600  0.82800  1.0000
  In  In1       1.0  0.66000  0.51900  0.73700  1.0000
  In  In2       1.0  0.34000  0.48100  0.26300  1.0000
  Li  Li1       1.0  0.38400  0.81100  0.95000  1.0000
  Li  Li2       1.0  0.61600  0.18900  0.05000  1.0000
  Nb  Nb1       1.0  0.85800  0.74800  0.42800  1.0000
  Nb  Nb2       1.0  0.14200  0.25200  0.57200  1.0000
  Nb  Nb3       1.0  0.85800  0.97800  0.29700  1.0000
  Nb  Nb4       1.0  0.14200  0.02210  0.70300  1.0000
  Nb  Nb5       1.0  0.86500  0.10800  0.65600  1.0000
  Nb  Nb6       1.0  0.13500  0.89200  0.34400  1.0000
