data_image0
_chemical_formula_structural       Ca8Li4O26Si8
_chemical_formula_sum              "Ca8 Li4 O26 Si8"
_cell_length_a       10.2691
_cell_length_b       8.04888
_cell_length_c       7.01938
_cell_angle_alpha    77.3839
_cell_angle_beta     90.4108
_cell_angle_gamma    109

_space_group_name_H-M_alt    "P 1"
_space_group_IT_number       1

loop_
  _space_group_symop_operation_xyz
  'x, y, z'

loop_
  _atom_site_type_symbol
  _atom_site_label
  _atom_site_symmetry_multiplicity
  _atom_site_fract_x
  _atom_site_fract_y
  _atom_site_fract_z
  _atom_site_occupancy
  Ca  Ca1       1.0  0.58700  0.20900  0.08000  1.0000
  Ca  Ca2       1.0  0.41300  0.79100  0.92000  1.0000
  Ca  Ca3       1.0  0.99800  0.18800  0.09140  1.0000
  Ca  Ca4       1.0  0.00209  0.81200  0.90900  1.0000
  Ca  Ca5       1.0  0.40200  0.78000  0.43400  1.0000
  Ca  Ca6       1.0  0.59800  0.22000  0.56600  1.0000
  Ca  Ca7       1.0  0.99500  0.78400  0.43600  1.0000
  Ca  Ca8       1.0  0.00530  0.21600  0.56400  1.0000
  Li  Li1       1.0  0.12600  0.59700  0.20800  1.0000
  Li  Li2       1.0  0.87400  0.40300  0.79200  1.0000
  Li  Li3       1.0  0.39900  0.39000  0.76400  1.0000
  Li  Li4       1.0  0.60100  0.61000  0.23600  1.0000
  O   O1        1.0  0.38600  0.97900  0.61800  1.0000
  O   O2        1.0  0.61400  0.02050  0.38200  1.0000
  O   O3        1.0  0.28800  0.14000  0.84500  1.0000
  O   O4        1.0  0.71200  0.86000  0.15500  1.0000
  O   O5        1.0  0.11300  0.98000  0.15000  1.0000
  O   O6        1.0  0.88700  0.02020  0.85000  1.0000
  O   O7        1.0  0.17000  0.69100  0.90300  1.0000
  O   O8        1.0  0.83000  0.30900  0.09690  1.0000
  O   O9        1.0  0.35500  0.26600  0.13900  1.0000
  O   O10       1.0  0.64500  0.73400  0.86100  1.0000
  O   O11       1.0  0.16200  0.66100  0.50600  1.0000
  O   O12       1.0  0.83800  0.33900  0.49400  1.0000
  O   O13       1.0  0.34200  0.58100  0.73800  1.0000
  O   O14       1.0  0.65800  0.41900  0.26200  1.0000
  O   O15       1.0  0.15000  0.36000  0.27400  1.0000
  O   O16       1.0  0.85000  0.64000  0.72600  1.0000
  O   O17       1.0  0.35000  0.29300  0.50000  1.0000
  O   O18       1.0  0.65000  0.70700  0.50000  1.0000
  O   O19       1.0  0.41100  0.59300  0.22000  1.0000
  O   O20       1.0  0.58900  0.40700  0.78000  1.0000
  O   O21       1.0  0.11800  0.99800  0.60100  1.0000
  O   O22       1.0  0.88200  0.00230  0.39900  1.0000
  O   O23       1.0  0.37300  0.94900  0.14200  1.0000
  O   O24       1.0  0.62700  0.05070  0.85800  1.0000
  O   O25       1.0  0.06340  0.37600  0.79900  1.0000
  O   O26       1.0  0.93700  0.62400  0.20100  1.0000
  Si  Si1       1.0  0.31200  0.38500  0.27800  1.0000
  Si  Si2       1.0  0.68800  0.61500  0.72200  1.0000
  Si  Si3       1.0  0.27400  0.06790  0.08420  1.0000
  Si  Si4       1.0  0.72600  0.93200  0.91600  1.0000
  Si  Si5       1.0  0.17900  0.57500  0.73700  1.0000
  Si  Si6       1.0  0.82100  0.42500  0.26300  1.0000
  Si  Si7       1.0  0.27800  0.08150  0.63400  1.0000
  Si  Si8       1.0  0.72200  0.91900  0.36600  1.0000
