data_image0
_chemical_formula_structural       Bi2Pb2Te5
_chemical_formula_sum              "Bi2 Pb2 Te5"
_cell_length_a       4.50467
_cell_length_b       4.50468
_cell_length_c       18.2568
_cell_angle_alpha    90
_cell_angle_beta     90.0002
_cell_angle_gamma    120

_space_group_name_H-M_alt    "P 1"
_space_group_IT_number       1

loop_
  _space_group_symop_operation_xyz
  'x, y, z'

loop_
  _atom_site_type_symbol
  _atom_site_label
  _atom_site_symmetry_multiplicity
  _atom_site_fract_x
  _atom_site_fract_y
  _atom_site_fract_z
  _atom_site_occupancy
  Bi  Bi1       1.0  0.33300  0.66700  0.11100  1.0000
  Bi  Bi2       1.0  0.66700  0.33300  0.88900  1.0000
  Pb  Pb1       1.0  0.00001  0.00001  0.34000  1.0000
  Pb  Pb2       1.0  0.00000  0.00000  0.66000  1.0000
  Te  Te1       1.0  0.00000  0.00000  0.00000  1.0000
  Te  Te2       1.0  0.66700  0.33300  0.20400  1.0000
  Te  Te3       1.0  0.33300  0.66700  0.42800  1.0000
  Te  Te4       1.0  0.66700  0.33300  0.57200  1.0000
  Te  Te5       1.0  0.33300  0.66700  0.79600  1.0000
