data_image0
_chemical_formula_structural       CrF6Rb2
_chemical_formula_sum              "Cr1 F6 Rb2"
_cell_length_a       5.74702
_cell_length_b       5.7471
_cell_length_c       5.74702
_cell_angle_alpha    119.996
_cell_angle_beta     90.0056
_cell_angle_gamma    119.996

_space_group_name_H-M_alt    "P 1"
_space_group_IT_number       1

loop_
  _space_group_symop_operation_xyz
  'x, y, z'

loop_
  _atom_site_type_symbol
  _atom_site_label
  _atom_site_symmetry_multiplicity
  _atom_site_fract_x
  _atom_site_fract_y
  _atom_site_fract_z
  _atom_site_occupancy
  Cr  Cr1       1.0  0.00000  0.00000  0.00000  1.0000
  F   F1        1.0  0.77300  0.00000  0.22700  1.0000
  F   F2        1.0  0.22700  0.45300  0.22700  1.0000
  F   F3        1.0  0.22700  0.00000  0.22700  1.0000
  F   F4        1.0  0.77300  0.00000  0.77300  1.0000
  F   F5        1.0  0.77300  0.54700  0.77300  1.0000
  F   F6        1.0  0.22700  0.00000  0.77300  1.0000
  Rb  Rb1       1.0  0.75000  0.50000  0.25000  1.0000
  Rb  Rb2       1.0  0.25000  0.50000  0.75000  1.0000
