data_image0
_chemical_formula_structural       Ba2Co2S4
_chemical_formula_sum              "Ba2 Co2 S4"
_cell_length_a       4.36637
_cell_length_b       4.36637
_cell_length_c       8.87124
_cell_angle_alpha    90
_cell_angle_beta     90
_cell_angle_gamma    89.9969

_space_group_name_H-M_alt    "P 1"
_space_group_IT_number       1

loop_
  _space_group_symop_operation_xyz
  'x, y, z'

loop_
  _atom_site_type_symbol
  _atom_site_label
  _atom_site_symmetry_multiplicity
  _atom_site_fract_x
  _atom_site_fract_y
  _atom_site_fract_z
  _atom_site_occupancy
  Ba  Ba1       1.0  0.75000  0.75000  0.80000  1.0000
  Ba  Ba2       1.0  0.25000  0.25000  0.20000  1.0000
  Co  Co1       1.0  0.75000  0.75000  0.41200  1.0000
  Co  Co2       1.0  0.25000  0.25000  0.58800  1.0000
  S   S1        1.0  0.75000  0.75000  0.15700  1.0000
  S   S2        1.0  0.25000  0.25000  0.84300  1.0000
  S   S3        1.0  0.25000  0.75000  0.50000  1.0000
  S   S4        1.0  0.75000  0.25000  0.50000  1.0000
