data_image0
_chemical_formula_structural       Br6PdSe2
_chemical_formula_sum              "Br6 Pd1 Se2"
_cell_length_a       4.75236
_cell_length_b       7.33255
_cell_length_c       9.0709
_cell_angle_alpha    105.554
_cell_angle_beta     97.2229
_cell_angle_gamma    92.4125

_space_group_name_H-M_alt    "P 1"
_space_group_IT_number       1

loop_
  _space_group_symop_operation_xyz
  'x, y, z'

loop_
  _atom_site_type_symbol
  _atom_site_label
  _atom_site_symmetry_multiplicity
  _atom_site_fract_x
  _atom_site_fract_y
  _atom_site_fract_z
  _atom_site_occupancy
  Br  Br1       1.0  0.74600  0.31500  0.05130  1.0000
  Br  Br2       1.0  0.91700  0.99700  0.28800  1.0000
  Br  Br3       1.0  0.31300  0.63400  0.35100  1.0000
  Br  Br4       1.0  0.68700  0.36600  0.64900  1.0000
  Br  Br5       1.0  0.08280  0.00348  0.71200  1.0000
  Br  Br6       1.0  0.25400  0.68500  0.94900  1.0000
  Pd  Pd1       1.0  0.00000  0.50000  0.50000  1.0000
  Se  Se1       1.0  0.67500  0.27700  0.29600  1.0000
  Se  Se2       1.0  0.32500  0.72300  0.70400  1.0000
