data_image0
_chemical_formula_structural       C4Mn12W12
_chemical_formula_sum              "C4 Mn12 W12"
_cell_length_a       7.86014
_cell_length_b       7.86014
_cell_length_c       7.86014
_cell_angle_alpha    60
_cell_angle_beta     60
_cell_angle_gamma    60

_space_group_name_H-M_alt    "P 1"
_space_group_IT_number       1

loop_
  _space_group_symop_operation_xyz
  'x, y, z'

loop_
  _atom_site_type_symbol
  _atom_site_label
  _atom_site_symmetry_multiplicity
  _atom_site_fract_x
  _atom_site_fract_y
  _atom_site_fract_z
  _atom_site_occupancy
  C   C1        1.0  0.12500  0.12500  0.12500  1.0000
  C   C2        1.0  0.12500  0.12500  0.62500  1.0000
  C   C3        1.0  0.62500  0.12500  0.12500  1.0000
  C   C4        1.0  0.12500  0.62500  0.12500  1.0000
  Mn  Mn1       1.0  0.62500  0.62500  0.62500  1.0000
  Mn  Mn2       1.0  0.62500  0.62500  0.12500  1.0000
  Mn  Mn3       1.0  0.12500  0.62500  0.62500  1.0000
  Mn  Mn4       1.0  0.62500  0.12500  0.62500  1.0000
  Mn  Mn5       1.0  0.82800  0.82800  0.82800  1.0000
  Mn  Mn6       1.0  0.82800  0.82800  0.51700  1.0000
  Mn  Mn7       1.0  0.51700  0.82800  0.82800  1.0000
  Mn  Mn8       1.0  0.82800  0.51700  0.82800  1.0000
  Mn  Mn9       1.0  0.42200  0.42200  0.42200  1.0000
  Mn  Mn10      1.0  0.42200  0.42200  0.73300  1.0000
  Mn  Mn11      1.0  0.42200  0.73300  0.42200  1.0000
  Mn  Mn12      1.0  0.73300  0.42200  0.42200  1.0000
  W   W1        1.0  0.80100  0.19900  0.19900  1.0000
  W   W2        1.0  0.19900  0.80100  0.80100  1.0000
  W   W3        1.0  0.19900  0.80100  0.19900  1.0000
  W   W4        1.0  0.19900  0.19900  0.80100  1.0000
  W   W5        1.0  0.80100  0.19900  0.80100  1.0000
  W   W6        1.0  0.80100  0.80100  0.19900  1.0000
  W   W7        1.0  0.05140  0.44900  0.05140  1.0000
  W   W8        1.0  0.44900  0.05140  0.44900  1.0000
  W   W9        1.0  0.44900  0.05140  0.05140  1.0000
  W   W10       1.0  0.05140  0.05140  0.44900  1.0000
  W   W11       1.0  0.05140  0.44900  0.44900  1.0000
  W   W12       1.0  0.44900  0.44900  0.05140  1.0000
