data_image0
_chemical_formula_structural       CdF6Pt
_chemical_formula_sum              "Cd1 F6 Pt1"
_cell_length_a       4.92686
_cell_length_b       4.92686
_cell_length_c       5.54341
_cell_angle_alpha    116.384
_cell_angle_beta     63.6157
_cell_angle_gamma    120

_space_group_name_H-M_alt    "P 1"
_space_group_IT_number       1

loop_
  _space_group_symop_operation_xyz
  'x, y, z'

loop_
  _atom_site_type_symbol
  _atom_site_label
  _atom_site_symmetry_multiplicity
  _atom_site_fract_x
  _atom_site_fract_y
  _atom_site_fract_z
  _atom_site_occupancy
  Cd  Cd1       1.0  0.50000  0.50000  0.50000  1.0000
  F   F1        1.0  0.22100  0.03710  0.23800  1.0000
  F   F2        1.0  0.96300  0.42100  0.23800  1.0000
  F   F3        1.0  0.57900  0.77900  0.23800  1.0000
  F   F4        1.0  0.42100  0.22100  0.76200  1.0000
  F   F5        1.0  0.03710  0.57900  0.76200  1.0000
  F   F6        1.0  0.77900  0.96300  0.76200  1.0000
  Pt  Pt1       1.0  0.00000  0.00000  0.00000  1.0000
