data_image0
_chemical_formula_structural       C4Co12Nb12
_chemical_formula_sum              "C4 Co12 Nb12"
_cell_length_a       8.03368
_cell_length_b       8.03368
_cell_length_c       8.03368
_cell_angle_alpha    60
_cell_angle_beta     60
_cell_angle_gamma    60

_space_group_name_H-M_alt    "P 1"
_space_group_IT_number       1

loop_
  _space_group_symop_operation_xyz
  'x, y, z'

loop_
  _atom_site_type_symbol
  _atom_site_label
  _atom_site_symmetry_multiplicity
  _atom_site_fract_x
  _atom_site_fract_y
  _atom_site_fract_z
  _atom_site_occupancy
  C   C1        1.0  0.12500  0.12500  0.12500  1.0000
  C   C2        1.0  0.12500  0.12500  0.62500  1.0000
  C   C3        1.0  0.62500  0.12500  0.12500  1.0000
  C   C4        1.0  0.12500  0.62500  0.12500  1.0000
  Co  Co1       1.0  0.62500  0.62500  0.62500  1.0000
  Co  Co2       1.0  0.62500  0.62500  0.12500  1.0000
  Co  Co3       1.0  0.12500  0.62500  0.62500  1.0000
  Co  Co4       1.0  0.62500  0.12500  0.62500  1.0000
  Co  Co5       1.0  0.82700  0.82700  0.82700  1.0000
  Co  Co6       1.0  0.82700  0.82700  0.51900  1.0000
  Co  Co7       1.0  0.51900  0.82700  0.82700  1.0000
  Co  Co8       1.0  0.82700  0.51900  0.82700  1.0000
  Co  Co9       1.0  0.42300  0.42300  0.42300  1.0000
  Co  Co10      1.0  0.42300  0.42300  0.73100  1.0000
  Co  Co11      1.0  0.42300  0.73100  0.42300  1.0000
  Co  Co12      1.0  0.73100  0.42300  0.42300  1.0000
  Nb  Nb1       1.0  0.80000  0.20000  0.20000  1.0000
  Nb  Nb2       1.0  0.20000  0.80000  0.80000  1.0000
  Nb  Nb3       1.0  0.20000  0.80000  0.20000  1.0000
  Nb  Nb4       1.0  0.20000  0.20000  0.80000  1.0000
  Nb  Nb5       1.0  0.80000  0.20000  0.80000  1.0000
  Nb  Nb6       1.0  0.80000  0.80000  0.20000  1.0000
  Nb  Nb7       1.0  0.05050  0.45000  0.05050  1.0000
  Nb  Nb8       1.0  0.45000  0.05050  0.45000  1.0000
  Nb  Nb9       1.0  0.45000  0.05050  0.05050  1.0000
  Nb  Nb10      1.0  0.05050  0.05050  0.45000  1.0000
  Nb  Nb11      1.0  0.05050  0.45000  0.45000  1.0000
  Nb  Nb12      1.0  0.45000  0.45000  0.05050  1.0000
