data_image0
_chemical_formula_structural       Cr2Hg10O10S4
_chemical_formula_sum              "Cr2 Hg10 O10 S4"
_cell_length_a       8.13601
_cell_length_b       9.39138
_cell_length_c       6.83171
_cell_angle_alpha    99.9955
_cell_angle_beta     110.246
_cell_angle_gamma    82.869

_space_group_name_H-M_alt    "P 1"
_space_group_IT_number       1

loop_
  _space_group_symop_operation_xyz
  'x, y, z'

loop_
  _atom_site_type_symbol
  _atom_site_label
  _atom_site_symmetry_multiplicity
  _atom_site_fract_x
  _atom_site_fract_y
  _atom_site_fract_z
  _atom_site_occupancy
  Cr  Cr1       1.0  0.38100  0.29400  0.39400  1.0000
  Cr  Cr2       1.0  0.61900  0.70600  0.60600  1.0000
  Hg  Hg1       1.0  0.10700  0.65300  0.64000  1.0000
  Hg  Hg2       1.0  0.89300  0.34700  0.36000  1.0000
  Hg  Hg3       1.0  0.50000  0.50000  1.00000  1.0000
  Hg  Hg4       1.0  0.16400  0.64600  0.16200  1.0000
  Hg  Hg5       1.0  0.83600  0.35400  0.83800  1.0000
  Hg  Hg6       1.0  0.27600  0.97700  0.60800  1.0000
  Hg  Hg7       1.0  0.72400  0.02310  0.39200  1.0000
  Hg  Hg8       1.0  0.00000  0.00000  0.00000  1.0000
  Hg  Hg9       1.0  0.55500  0.09560  0.87400  1.0000
  Hg  Hg10      1.0  0.44500  0.90400  0.12600  1.0000
  O   O1        1.0  0.27900  0.14000  0.32700  1.0000
  O   O2        1.0  0.72100  0.86000  0.67300  1.0000
  O   O3        1.0  0.23000  0.43300  0.37400  1.0000
  O   O4        1.0  0.77000  0.56700  0.62600  1.0000
  O   O5        1.0  0.81900  0.16000  0.04910  1.0000
  O   O6        1.0  0.18100  0.84000  0.95100  1.0000
  O   O7        1.0  0.51600  0.30100  0.64600  1.0000
  O   O8        1.0  0.48400  0.69900  0.35400  1.0000
  O   O9        1.0  0.49900  0.29800  0.24000  1.0000
  O   O10       1.0  0.50100  0.70200  0.76000  1.0000
  S   S1        1.0  0.19300  0.46700  0.86700  1.0000
  S   S2        1.0  0.80700  0.53300  0.13300  1.0000
  S   S3        1.0  0.03600  0.81800  0.38700  1.0000
  S   S4        1.0  0.96400  0.18200  0.61300  1.0000
