data_image0
_chemical_formula_structural       C3Mo2Tm2
_chemical_formula_sum              "C3 Mo2 Tm2"
_cell_length_a       3.35483
_cell_length_b       5.63994
_cell_length_c       5.88057
_cell_angle_alpha    107.938
_cell_angle_beta     106.574
_cell_angle_gamma    90

_space_group_name_H-M_alt    "P 1"
_space_group_IT_number       1

loop_
  _space_group_symop_operation_xyz
  'x, y, z'

loop_
  _atom_site_type_symbol
  _atom_site_label
  _atom_site_symmetry_multiplicity
  _atom_site_fract_x
  _atom_site_fract_y
  _atom_site_fract_z
  _atom_site_occupancy
  C   C1        1.0  0.00000  0.50000  0.00000  1.0000
  C   C2        1.0  0.73000  0.25400  0.46000  1.0000
  C   C3        1.0  0.27000  0.74600  0.54000  1.0000
  Mo  Mo1       1.0  0.14900  0.36900  0.29700  1.0000
  Mo  Mo2       1.0  0.85100  0.63100  0.70300  1.0000
  Tm  Tm1       1.0  0.61500  0.81900  0.23000  1.0000
  Tm  Tm2       1.0  0.38500  0.18100  0.77000  1.0000
