data_image0
_chemical_formula_structural       C3Lu2Mo2
_chemical_formula_sum              "C3 Lu2 Mo2"
_cell_length_a       3.33518
_cell_length_b       5.60389
_cell_length_c       5.86291
_cell_angle_alpha    108.391
_cell_angle_beta     106.525
_cell_angle_gamma    90

_space_group_name_H-M_alt    "P 1"
_space_group_IT_number       1

loop_
  _space_group_symop_operation_xyz
  'x, y, z'

loop_
  _atom_site_type_symbol
  _atom_site_label
  _atom_site_symmetry_multiplicity
  _atom_site_fract_x
  _atom_site_fract_y
  _atom_site_fract_z
  _atom_site_occupancy
  C   C1        1.0  0.73100  0.25200  0.46200  1.0000
  C   C2        1.0  0.26900  0.74800  0.53800  1.0000
  C   C3        1.0  1.00000  0.50000  0.00000  1.0000
  Lu  Lu1       1.0  0.61600  0.81800  0.23200  1.0000
  Lu  Lu2       1.0  0.38400  0.18200  0.76800  1.0000
  Mo  Mo1       1.0  0.14800  0.36600  0.29500  1.0000
  Mo  Mo2       1.0  0.85200  0.63400  0.70500  1.0000
