data_image0
_chemical_formula_structural       F6KRh
_chemical_formula_sum              "F6 K1 Rh1"
_cell_length_a       4.64852
_cell_length_b       4.64852
_cell_length_c       4.64851
_cell_angle_alpha    98.0342
_cell_angle_beta     98.0342
_cell_angle_gamma    98.034

_space_group_name_H-M_alt    "P 1"
_space_group_IT_number       1

loop_
  _space_group_symop_operation_xyz
  'x, y, z'

loop_
  _atom_site_type_symbol
  _atom_site_label
  _atom_site_symmetry_multiplicity
  _atom_site_fract_x
  _atom_site_fract_y
  _atom_site_fract_z
  _atom_site_occupancy
  F   F1        1.0  0.78500  0.64900  0.07330  1.0000
  F   F2        1.0  0.35100  0.92700  0.21500  1.0000
  F   F3        1.0  0.92700  0.21500  0.35100  1.0000
  F   F4        1.0  0.07330  0.78500  0.64900  1.0000
  F   F5        1.0  0.64900  0.07330  0.78500  1.0000
  F   F6        1.0  0.21500  0.35100  0.92700  1.0000
  K   K1        1.0  0.50000  0.50000  0.50000  1.0000
  Rh  Rh1       1.0  0.00000  0.00000  0.00000  1.0000
