data_image0
_chemical_formula_structural       Ag8S
_chemical_formula_sum              "Ag8 S1"
_cell_length_a       6.06643
_cell_length_b       6.24531
_cell_length_c       6.24531
_cell_angle_alpha    107.117
_cell_angle_beta     119.057
_cell_angle_gamma    60.9431

_space_group_name_H-M_alt    "P 1"
_space_group_IT_number       1

loop_
  _space_group_symop_operation_xyz
  'x, y, z'

loop_
  _atom_site_type_symbol
  _atom_site_label
  _atom_site_symmetry_multiplicity
  _atom_site_fract_x
  _atom_site_fract_y
  _atom_site_fract_z
  _atom_site_occupancy
  Ag  Ag1       1.0  0.86200  0.87200  0.12800  1.0000
  Ag  Ag2       1.0  0.39400  0.87200  0.12800  1.0000
  Ag  Ag3       1.0  0.38900  0.40500  0.18300  1.0000
  Ag  Ag4       1.0  0.88900  0.43400  0.21200  1.0000
  Ag  Ag5       1.0  0.88900  0.78800  0.56600  1.0000
  Ag  Ag6       1.0  0.38900  0.81700  0.59500  1.0000
  Ag  Ag7       1.0  0.91600  0.35000  0.65000  1.0000
  Ag  Ag8       1.0  0.38300  0.35000  0.65000  1.0000
  S   S1        1.0  0.88900  0.11100  0.88900  1.0000
