data_image0
_chemical_formula_structural       B3O15P3Sr3
_chemical_formula_sum              "B3 O15 P3 Sr3"
_cell_length_a       6.73352
_cell_length_b       6.73352
_cell_length_c       6.71183
_cell_angle_alpha    90
_cell_angle_beta     90
_cell_angle_gamma    120

_space_group_name_H-M_alt    "P 1"
_space_group_IT_number       1

loop_
  _space_group_symop_operation_xyz
  'x, y, z'

loop_
  _atom_site_type_symbol
  _atom_site_label
  _atom_site_symmetry_multiplicity
  _atom_site_fract_x
  _atom_site_fract_y
  _atom_site_fract_z
  _atom_site_occupancy
  B   B1        1.0  0.89900  0.89900  0.50000  1.0000
  B   B2        1.0  0.10100  0.00000  0.83300  1.0000
  B   B3        1.0  0.00000  0.10100  0.16700  1.0000
  O   O1        1.0  0.95100  0.95100  0.00000  1.0000
  O   O2        1.0  0.04880  0.00000  0.33300  1.0000
  O   O3        1.0  0.00000  0.04880  0.66700  1.0000
  O   O4        1.0  0.59200  0.45600  0.15300  1.0000
  O   O5        1.0  0.54400  0.13600  0.48600  1.0000
  O   O6        1.0  0.86400  0.40800  0.81900  1.0000
  O   O7        1.0  0.13600  0.54400  0.51400  1.0000
  O   O8        1.0  0.40800  0.86400  0.18100  1.0000
  O   O9        1.0  0.45600  0.59200  0.84700  1.0000
  O   O10       1.0  0.34400  0.18800  0.87400  1.0000
  O   O11       1.0  0.81200  0.15600  0.20700  1.0000
  O   O12       1.0  0.84400  0.65600  0.54000  1.0000
  O   O13       1.0  0.15600  0.81200  0.79300  1.0000
  O   O14       1.0  0.65600  0.84400  0.46000  1.0000
  O   O15       1.0  0.18800  0.34400  0.12600  1.0000
  P   P1        1.0  0.41100  0.41100  0.00000  1.0000
  P   P2        1.0  0.58900  0.00000  0.33300  1.0000
  P   P3        1.0  0.00000  0.58900  0.66700  1.0000
  Sr  Sr1       1.0  0.39200  0.39200  0.50000  1.0000
  Sr  Sr2       1.0  0.60800  0.00000  0.83300  1.0000
  Sr  Sr3       1.0  0.00000  0.60800  0.16700  1.0000
