data_image0
_chemical_formula_structural       Br6K2Os
_chemical_formula_sum              "Br6 K2 Os1"
_cell_length_a       7.41516
_cell_length_b       7.41553
_cell_length_c       7.41515
_cell_angle_alpha    119.998
_cell_angle_beta     90.0038
_cell_angle_gamma    119.998

_space_group_name_H-M_alt    "P 1"
_space_group_IT_number       1

loop_
  _space_group_symop_operation_xyz
  'x, y, z'

loop_
  _atom_site_type_symbol
  _atom_site_label
  _atom_site_symmetry_multiplicity
  _atom_site_fract_x
  _atom_site_fract_y
  _atom_site_fract_z
  _atom_site_occupancy
  Br  Br1       1.0  0.76100  0.00000  0.23900  1.0000
  Br  Br2       1.0  0.23900  0.47800  0.23900  1.0000
  Br  Br3       1.0  0.23900  0.00000  0.23900  1.0000
  Br  Br4       1.0  0.76100  0.00000  0.76100  1.0000
  Br  Br5       1.0  0.76100  0.52200  0.76100  1.0000
  Br  Br6       1.0  0.23900  0.00000  0.76100  1.0000
  K   K1        1.0  0.75000  0.50000  0.25000  1.0000
  K   K2        1.0  0.25000  0.50000  0.75000  1.0000
  Os  Os1       1.0  0.00000  0.00000  0.00000  1.0000
