data_image0
_chemical_formula_structural       CuGe6Ho2
_chemical_formula_sum              "Cu1 Ge6 Ho2"
_cell_length_a       4.07559
_cell_length_b       4.03733
_cell_length_c       10.8514
_cell_angle_alpha    79.279
_cell_angle_beta     90
_cell_angle_gamma    90

_space_group_name_H-M_alt    "P 1"
_space_group_IT_number       1

loop_
  _space_group_symop_operation_xyz
  'x, y, z'

loop_
  _atom_site_type_symbol
  _atom_site_label
  _atom_site_symmetry_multiplicity
  _atom_site_fract_x
  _atom_site_fract_y
  _atom_site_fract_z
  _atom_site_occupancy
  Cu  Cu1       1.0  0.50000  0.77600  0.44800  1.0000
  Ge  Ge1       1.0  0.50000  0.45700  0.08550  1.0000
  Ge  Ge2       1.0  0.50000  0.88500  0.23100  1.0000
  Ge  Ge3       1.0  0.00000  0.71500  0.57000  1.0000
  Ge  Ge4       1.0  0.50000  0.21500  0.57100  1.0000
  Ge  Ge5       1.0  0.00000  0.59800  0.80400  1.0000
  Ge  Ge6       1.0  0.50000  0.09740  0.80500  1.0000
  Ho  Ho1       1.0  0.00000  0.99500  0.00930  1.0000
  Ho  Ho2       1.0  0.00000  0.33100  0.33800  1.0000
