data_image0
_chemical_formula_structural       Br10CoPr6
_chemical_formula_sum              "Br10 Co1 Pr6"
_cell_length_a       9.54341
_cell_length_b       9.38286
_cell_length_c       7.6409
_cell_angle_alpha    97.4766
_cell_angle_beta     107.26
_cell_angle_gamma    109.921

_space_group_name_H-M_alt    "P 1"
_space_group_IT_number       1

loop_
  _space_group_symop_operation_xyz
  'x, y, z'

loop_
  _atom_site_type_symbol
  _atom_site_label
  _atom_site_symmetry_multiplicity
  _atom_site_fract_x
  _atom_site_fract_y
  _atom_site_fract_z
  _atom_site_occupancy
  Br  Br1       1.0  0.27200  0.36600  0.81400  1.0000
  Br  Br2       1.0  0.72800  0.63400  0.18600  1.0000
  Br  Br3       1.0  0.82500  0.08130  0.44900  1.0000
  Br  Br4       1.0  0.17500  0.91900  0.55100  1.0000
  Br  Br5       1.0  0.36700  0.82800  0.09390  1.0000
  Br  Br6       1.0  0.63300  0.17200  0.90600  1.0000
  Br  Br7       1.0  0.07630  0.46100  0.26500  1.0000
  Br  Br8       1.0  0.92400  0.53900  0.73500  1.0000
  Br  Br9       1.0  0.47200  0.27900  0.38300  1.0000
  Br  Br10      1.0  0.52800  0.72100  0.61700  1.0000
  Co  Co1       1.0  0.00000  0.00000  0.00000  1.0000
  Pr  Pr1       1.0  0.04050  0.75800  0.12000  1.0000
  Pr  Pr2       1.0  0.96000  0.24200  0.88000  1.0000
  Pr  Pr3       1.0  0.14600  0.19200  0.37500  1.0000
  Pr  Pr4       1.0  0.85400  0.80800  0.62500  1.0000
  Pr  Pr5       1.0  0.30900  0.10300  0.98300  1.0000
  Pr  Pr6       1.0  0.69100  0.89700  0.01680  1.0000
