data_image0
_chemical_formula_structural       Rh3Sn3U3
_chemical_formula_sum              "Rh3 Sn3 U3"
_cell_length_a       7.33073
_cell_length_b       7.33073
_cell_length_c       4.0899
_cell_angle_alpha    90
_cell_angle_beta     90
_cell_angle_gamma    119.993

_space_group_name_H-M_alt    "P 1"
_space_group_IT_number       1

loop_
  _space_group_symop_operation_xyz
  'x, y, z'

loop_
  _atom_site_type_symbol
  _atom_site_label
  _atom_site_symmetry_multiplicity
  _atom_site_fract_x
  _atom_site_fract_y
  _atom_site_fract_z
  _atom_site_occupancy
  Rh  Rh1       1.0  0.66700  0.33300  0.00000  1.0000
  Rh  Rh2       1.0  0.33300  0.66700  0.00000  1.0000
  Rh  Rh3       1.0  0.00000  0.00000  0.50000  1.0000
  Sn  Sn1       1.0  0.25200  0.00002  0.00000  1.0000
  Sn  Sn2       1.0  0.00002  0.25200  0.00000  1.0000
  Sn  Sn3       1.0  0.74800  0.74800  0.00000  1.0000
  U   U1        1.0  0.58000  0.00003  0.50000  1.0000
  U   U2        1.0  0.42000  0.42000  0.50000  1.0000
  U   U3        1.0  0.00003  0.58000  0.50000  1.0000
