data_image0
_chemical_formula_structural       Li20O20Pb2Si4
_chemical_formula_sum              "Li20 O20 Pb2 Si4"
_cell_length_a       14.9863
_cell_length_b       14.9863
_cell_length_c       4.9788
_cell_angle_alpha    80.7405
_cell_angle_beta     99.2595
_cell_angle_gamma    156.961

_space_group_name_H-M_alt    "P 1"
_space_group_IT_number       1

loop_
  _space_group_symop_operation_xyz
  'x, y, z'

loop_
  _atom_site_type_symbol
  _atom_site_label
  _atom_site_symmetry_multiplicity
  _atom_site_fract_x
  _atom_site_fract_y
  _atom_site_fract_z
  _atom_site_occupancy
  Li  Li1       1.0  0.44000  0.05220  0.79400  1.0000
  Li  Li2       1.0  0.05220  0.44000  0.20600  1.0000
  Li  Li3       1.0  0.56000  0.94800  0.20600  1.0000
  Li  Li4       1.0  0.94800  0.56000  0.79400  1.0000
  Li  Li5       1.0  0.67200  0.32800  0.41400  1.0000
  Li  Li6       1.0  0.32800  0.67200  0.58600  1.0000
  Li  Li7       1.0  0.13600  0.86400  0.48500  1.0000
  Li  Li8       1.0  0.86400  0.13600  0.51500  1.0000
  Li  Li9       1.0  0.27000  0.73000  0.86200  1.0000
  Li  Li10      1.0  0.73000  0.27000  0.13800  1.0000
  Li  Li11      1.0  0.91500  0.65200  0.04020  1.0000
  Li  Li12      1.0  0.65200  0.91500  0.96000  1.0000
  Li  Li13      1.0  0.08550  0.34800  0.96000  1.0000
  Li  Li14      1.0  0.34800  0.08550  0.04020  1.0000
  Li  Li15      1.0  0.49300  0.50700  0.23600  1.0000
  Li  Li16      1.0  0.50700  0.49300  0.76400  1.0000
  Li  Li17      1.0  0.78400  0.65600  0.24200  1.0000
  Li  Li18      1.0  0.65600  0.78400  0.75800  1.0000
  Li  Li19      1.0  0.21600  0.34400  0.75800  1.0000
  Li  Li20      1.0  0.34400  0.21600  0.24200  1.0000
  O   O1        1.0  0.85000  0.59200  0.64000  1.0000
  O   O2        1.0  0.59200  0.85000  0.36000  1.0000
  O   O3        1.0  0.15000  0.40800  0.36000  1.0000
  O   O4        1.0  0.40800  0.15000  0.64000  1.0000
  O   O5        1.0  0.54900  0.45100  0.51200  1.0000
  O   O6        1.0  0.45100  0.54900  0.48800  1.0000
  O   O7        1.0  0.27300  0.72700  0.26600  1.0000
  O   O8        1.0  0.72700  0.27300  0.73400  1.0000
  O   O9        1.0  0.09160  0.90800  0.14800  1.0000
  O   O10       1.0  0.90800  0.09160  0.85200  1.0000
  O   O11       1.0  0.96400  0.57700  0.18000  1.0000
  O   O12       1.0  0.57700  0.96400  0.82000  1.0000
  O   O13       1.0  0.03610  0.42300  0.82000  1.0000
  O   O14       1.0  0.42300  0.03610  0.18000  1.0000
  O   O15       1.0  0.21300  0.78700  0.63500  1.0000
  O   O16       1.0  0.78700  0.21300  0.36500  1.0000
  O   O17       1.0  0.59600  0.40400  0.03090  1.0000
  O   O18       1.0  0.40400  0.59600  0.96900  1.0000
  O   O19       1.0  0.75100  0.75100  0.00000  1.0000
  O   O20       1.0  0.24900  0.24900  0.00000  1.0000
  Pb  Pb1       1.0  0.03960  0.96000  0.77500  1.0000
  Pb  Pb2       1.0  0.96000  0.03960  0.22500  1.0000
  Si  Si1       1.0  0.40000  0.60000  0.29600  1.0000
  Si  Si2       1.0  0.60000  0.40000  0.70400  1.0000
  Si  Si3       1.0  0.78100  0.21900  0.68400  1.0000
  Si  Si4       1.0  0.21900  0.78100  0.31600  1.0000
