data_image0
_chemical_formula_structural       F6LiRu
_chemical_formula_sum              "F6 Li1 Ru1"
_cell_length_a       4.69144
_cell_length_b       4.69147
_cell_length_c       5.13751
_cell_angle_alpha    117.172
_cell_angle_beta     117.174
_cell_angle_gamma    59.9968

_space_group_name_H-M_alt    "P 1"
_space_group_IT_number       1

loop_
  _space_group_symop_operation_xyz
  'x, y, z'

loop_
  _atom_site_type_symbol
  _atom_site_label
  _atom_site_symmetry_multiplicity
  _atom_site_fract_x
  _atom_site_fract_y
  _atom_site_fract_z
  _atom_site_occupancy
  F   F1        1.0  0.75600  0.08100  0.24800  1.0000
  F   F2        1.0  0.41200  0.75500  0.24800  1.0000
  F   F3        1.0  0.08100  0.41200  0.24800  1.0000
  F   F4        1.0  0.91900  0.58800  0.75200  1.0000
  F   F5        1.0  0.58800  0.24500  0.75200  1.0000
  F   F6        1.0  0.24400  0.91900  0.75200  1.0000
  Li  Li1       1.0  0.50000  0.50000  0.50000  1.0000
  Ru  Ru1       1.0  0.00000  0.00000  0.00000  1.0000
