data_image0
_chemical_formula_structural       I12Nb2Te8
_chemical_formula_sum              "I12 Nb2 Te8"
_cell_length_a       8.11379
_cell_length_b       11.2231
_cell_length_c       12.2143
_cell_angle_alpha    111.829
_cell_angle_beta     106.998
_cell_angle_gamma    98.4775

_space_group_name_H-M_alt    "P 1"
_space_group_IT_number       1

loop_
  _space_group_symop_operation_xyz
  'x, y, z'

loop_
  _atom_site_type_symbol
  _atom_site_label
  _atom_site_symmetry_multiplicity
  _atom_site_fract_x
  _atom_site_fract_y
  _atom_site_fract_z
  _atom_site_occupancy
  I   I1        1.0  0.29400  0.25800  0.75700  1.0000
  I   I2        1.0  0.70600  0.74200  0.24300  1.0000
  I   I3        1.0  0.84200  0.35100  0.84800  1.0000
  I   I4        1.0  0.15800  0.64900  0.15200  1.0000
  I   I5        1.0  0.13700  0.19300  0.02330  1.0000
  I   I6        1.0  0.86300  0.80700  0.97700  1.0000
  I   I7        1.0  0.73600  0.17700  0.43500  1.0000
  I   I8        1.0  0.26400  0.82300  0.56500  1.0000
  I   I9        1.0  0.67700  0.22700  0.10500  1.0000
  I   I10       1.0  0.32300  0.77300  0.89500  1.0000
  I   I11       1.0  0.19800  0.09210  0.35800  1.0000
  I   I12       1.0  0.80200  0.90800  0.64200  1.0000
  Nb  Nb1       1.0  0.48600  0.35000  0.45700  1.0000
  Nb  Nb2       1.0  0.51400  0.65000  0.54300  1.0000
  Te  Te1       1.0  0.27100  0.47400  0.58300  1.0000
  Te  Te2       1.0  0.72900  0.52600  0.41700  1.0000
  Te  Te3       1.0  0.20900  0.44300  0.34200  1.0000
  Te  Te4       1.0  0.79100  0.55700  0.65800  1.0000
  Te  Te5       1.0  0.52300  0.21300  0.62200  1.0000
  Te  Te6       1.0  0.47700  0.78700  0.37800  1.0000
  Te  Te7       1.0  0.41700  0.15300  0.19500  1.0000
  Te  Te8       1.0  0.58300  0.84700  0.80500  1.0000
