data_image0
_chemical_formula_structural       C8F24Li4N4O16S8
_chemical_formula_sum              "C8 F24 Li4 N4 O16 S8"
_cell_length_a       8.82689
_cell_length_b       4.90506
_cell_length_c       14.8024
_cell_angle_alpha    90
_cell_angle_beta     90
_cell_angle_gamma    90

_space_group_name_H-M_alt    "P 1"
_space_group_IT_number       1

loop_
  _space_group_symop_operation_xyz
  'x, y, z'

loop_
  _atom_site_type_symbol
  _atom_site_label
  _atom_site_symmetry_multiplicity
  _atom_site_fract_x
  _atom_site_fract_y
  _atom_site_fract_z
  _atom_site_occupancy
  C   C1        1.0  0.07980  0.28300  0.08010  1.0000
  C   C2        1.0  0.07980  0.21700  0.42000  1.0000
  C   C3        1.0  0.42000  0.78300  0.92000  1.0000
  C   C4        1.0  0.42000  0.71700  0.58000  1.0000
  C   C5        1.0  0.92000  0.71700  0.92000  1.0000
  C   C6        1.0  0.92000  0.78300  0.58000  1.0000
  C   C7        1.0  0.58000  0.21700  0.08010  1.0000
  C   C8        1.0  0.58000  0.28300  0.42000  1.0000
  F   F1        1.0  0.13900  0.14400  0.01080  1.0000
  F   F2        1.0  0.13900  0.35600  0.48900  1.0000
  F   F3        1.0  0.36100  0.64400  0.98900  1.0000
  F   F4        1.0  0.36100  0.85600  0.51100  1.0000
  F   F5        1.0  0.86100  0.85600  0.98900  1.0000
  F   F6        1.0  0.86100  0.64400  0.51100  1.0000
  F   F7        1.0  0.63900  0.35600  0.01080  1.0000
  F   F8        1.0  0.63900  0.14400  0.48900  1.0000
  F   F9        1.0  0.16900  0.49700  0.09920  1.0000
  F   F10       1.0  0.16900  0.00270  0.40100  1.0000
  F   F11       1.0  0.33100  0.99700  0.90100  1.0000
  F   F12       1.0  0.33100  0.50300  0.59900  1.0000
  F   F13       1.0  0.83100  0.50300  0.90100  1.0000
  F   F14       1.0  0.83100  0.99700  0.59900  1.0000
  F   F15       1.0  0.66900  0.00270  0.09920  1.0000
  F   F16       1.0  0.66900  0.49700  0.40100  1.0000
  F   F17       1.0  0.93800  0.36100  0.06070  1.0000
  F   F18       1.0  0.93800  0.13900  0.43900  1.0000
  F   F19       1.0  0.56200  0.86100  0.93900  1.0000
  F   F20       1.0  0.56200  0.63900  0.56100  1.0000
  F   F21       1.0  0.06220  0.63900  0.93900  1.0000
  F   F22       1.0  0.06220  0.86100  0.56100  1.0000
  F   F23       1.0  0.43800  0.13900  0.06070  1.0000
  F   F24       1.0  0.43800  0.36100  0.43900  1.0000
  Li  Li1       1.0  0.84300  0.75000  0.25000  1.0000
  Li  Li2       1.0  0.65700  0.25000  0.75000  1.0000
  Li  Li3       1.0  0.15700  0.25000  0.75000  1.0000
  Li  Li4       1.0  0.34300  0.75000  0.25000  1.0000
  N   N1        1.0  0.99400  0.25000  0.25000  1.0000
  N   N2        1.0  0.50600  0.75000  0.75000  1.0000
  N   N3        1.0  0.00580  0.75000  0.75000  1.0000
  N   N4        1.0  0.49400  0.25000  0.25000  1.0000
  O   O1        1.0  0.23100  0.00398  0.19400  1.0000
  O   O2        1.0  0.23100  0.49600  0.30600  1.0000
  O   O3        1.0  0.26900  0.50400  0.80600  1.0000
  O   O4        1.0  0.26900  0.99600  0.69400  1.0000
  O   O5        1.0  0.76900  0.99600  0.80600  1.0000
  O   O6        1.0  0.76900  0.50400  0.69400  1.0000
  O   O7        1.0  0.73100  0.49600  0.19400  1.0000
  O   O8        1.0  0.73100  0.00398  0.30600  1.0000
  O   O9        1.0  0.97200  0.84800  0.15600  1.0000
  O   O10       1.0  0.97200  0.65200  0.34400  1.0000
  O   O11       1.0  0.52800  0.34800  0.84400  1.0000
  O   O12       1.0  0.52800  0.15200  0.65600  1.0000
  O   O13       1.0  0.02840  0.15200  0.84400  1.0000
  O   O14       1.0  0.02840  0.34800  0.65600  1.0000
  O   O15       1.0  0.47200  0.65200  0.15600  1.0000
  O   O16       1.0  0.47200  0.84800  0.34400  1.0000
  S   S1        1.0  0.07380  0.06640  0.17900  1.0000
  S   S2        1.0  0.07380  0.43400  0.32100  1.0000
  S   S3        1.0  0.42600  0.56600  0.82100  1.0000
  S   S4        1.0  0.42600  0.93400  0.67900  1.0000
  S   S5        1.0  0.92600  0.93400  0.82100  1.0000
  S   S6        1.0  0.92600  0.56600  0.67900  1.0000
  S   S7        1.0  0.57400  0.43400  0.17900  1.0000
  S   S8        1.0  0.57400  0.06640  0.32100  1.0000
