data_image0
_chemical_formula_structural       Ag4Eu4O16Ti4
_chemical_formula_sum              "Ag4 Eu4 O16 Ti4"
_cell_length_a       11.9699
_cell_length_b       5.36077
_cell_length_c       5.36266
_cell_angle_alpha    90
_cell_angle_beta     90
_cell_angle_gamma    90

_space_group_name_H-M_alt    "P 1"
_space_group_IT_number       1

loop_
  _space_group_symop_operation_xyz
  'x, y, z'

loop_
  _atom_site_type_symbol
  _atom_site_label
  _atom_site_symmetry_multiplicity
  _atom_site_fract_x
  _atom_site_fract_y
  _atom_site_fract_z
  _atom_site_occupancy
  Ag  Ag1       1.0  0.59300  0.00848  0.25000  1.0000
  Ag  Ag2       1.0  0.40700  0.99200  0.75000  1.0000
  Ag  Ag3       1.0  0.59300  0.49200  0.75000  1.0000
  Ag  Ag4       1.0  0.40700  0.50800  0.25000  1.0000
  Eu  Eu1       1.0  0.89200  0.00025  0.25000  1.0000
  Eu  Eu2       1.0  0.10800  0.00000  0.75000  1.0000
  Eu  Eu3       1.0  0.89200  0.50000  0.75000  1.0000
  Eu  Eu4       1.0  0.10800  0.50000  0.25000  1.0000
  O   O1        1.0  0.41800  0.99900  0.25000  1.0000
  O   O2        1.0  0.58200  0.00149  0.75000  1.0000
  O   O3        1.0  0.41800  0.50100  0.75000  1.0000
  O   O4        1.0  0.58200  0.49900  0.25000  1.0000
  O   O5        1.0  0.08650  0.99900  0.25000  1.0000
  O   O6        1.0  0.91400  0.00053  0.75000  1.0000
  O   O7        1.0  0.08650  0.50100  0.75000  1.0000
  O   O8        1.0  0.91400  0.49900  0.25000  1.0000
  O   O9        1.0  0.75500  0.25000  0.00000  1.0000
  O   O10       1.0  0.24500  0.75000  0.50000  1.0000
  O   O11       1.0  0.24500  0.75000  0.00000  1.0000
  O   O12       1.0  0.75500  0.25000  0.50000  1.0000
  O   O13       1.0  0.24500  0.25000  0.00000  1.0000
  O   O14       1.0  0.75500  0.75000  0.50000  1.0000
  O   O15       1.0  0.75500  0.75000  0.00000  1.0000
  O   O16       1.0  0.24500  0.25000  0.50000  1.0000
  Ti  Ti1       1.0  0.25300  0.00076  0.25000  1.0000
  Ti  Ti2       1.0  0.74700  0.99900  0.75000  1.0000
  Ti  Ti3       1.0  0.25300  0.49900  0.75000  1.0000
  Ti  Ti4       1.0  0.74700  0.50100  0.25000  1.0000
