data_image0
_chemical_formula_structural       Al4F24Pd4Rb4
_chemical_formula_sum              "Al4 F24 Pd4 Rb4"
_cell_length_a       6.62146
_cell_length_b       6.91078
_cell_length_c       9.48805
_cell_angle_alpha    90
_cell_angle_beta     90
_cell_angle_gamma    90

_space_group_name_H-M_alt    "P 1"
_space_group_IT_number       1

loop_
  _space_group_symop_operation_xyz
  'x, y, z'

loop_
  _atom_site_type_symbol
  _atom_site_label
  _atom_site_symmetry_multiplicity
  _atom_site_fract_x
  _atom_site_fract_y
  _atom_site_fract_z
  _atom_site_occupancy
  Al  Al1       1.0  0.00000  0.00000  0.00000  1.0000
  Al  Al2       1.0  0.50000  0.00000  0.50000  1.0000
  Al  Al3       1.0  0.50000  0.50000  0.50000  1.0000
  Al  Al4       1.0  0.00000  0.50000  0.00000  1.0000
  F   F1        1.0  0.07570  0.25000  0.63800  1.0000
  F   F2        1.0  0.42400  0.75000  0.13800  1.0000
  F   F3        1.0  0.57600  0.25000  0.86200  1.0000
  F   F4        1.0  0.92400  0.75000  0.36200  1.0000
  F   F5        1.0  0.97200  0.25000  0.98000  1.0000
  F   F6        1.0  0.52800  0.75000  0.48000  1.0000
  F   F7        1.0  0.47200  0.25000  0.52000  1.0000
  F   F8        1.0  0.02780  0.75000  0.01970  1.0000
  F   F9        1.0  0.89600  0.96500  0.82900  1.0000
  F   F10       1.0  0.60400  0.03510  0.32900  1.0000
  F   F11       1.0  0.39600  0.53500  0.67100  1.0000
  F   F12       1.0  0.10400  0.46500  0.17100  1.0000
  F   F13       1.0  0.10400  0.03510  0.17100  1.0000
  F   F14       1.0  0.39600  0.96500  0.67100  1.0000
  F   F15       1.0  0.60400  0.46500  0.32900  1.0000
  F   F16       1.0  0.89600  0.53500  0.82900  1.0000
  F   F17       1.0  0.74900  0.49100  0.57200  1.0000
  F   F18       1.0  0.75100  0.50900  0.07220  1.0000
  F   F19       1.0  0.24900  0.00900  0.92800  1.0000
  F   F20       1.0  0.25100  0.99100  0.42800  1.0000
  F   F21       1.0  0.25100  0.50900  0.42800  1.0000
  F   F22       1.0  0.24900  0.49100  0.92800  1.0000
  F   F23       1.0  0.75100  0.99100  0.07220  1.0000
  F   F24       1.0  0.74900  0.00900  0.57200  1.0000
  Pd  Pd1       1.0  0.81200  0.25000  0.73300  1.0000
  Pd  Pd2       1.0  0.68800  0.75000  0.23300  1.0000
  Pd  Pd3       1.0  0.31200  0.25000  0.76700  1.0000
  Pd  Pd4       1.0  0.18800  0.75000  0.26700  1.0000
  Rb  Rb1       1.0  0.44500  0.25000  0.12900  1.0000
  Rb  Rb2       1.0  0.05500  0.75000  0.62900  1.0000
  Rb  Rb3       1.0  0.94500  0.25000  0.37100  1.0000
  Rb  Rb4       1.0  0.55500  0.75000  0.87100  1.0000
