data_image0
_chemical_formula_structural       Ca28Si38
_chemical_formula_sum              "Ca28 Si38"
_cell_length_a       23.4093
_cell_length_b       23.4093
_cell_length_c       23.4093
_cell_angle_alpha    21.2816
_cell_angle_beta     21.2816
_cell_angle_gamma    21.2816

_space_group_name_H-M_alt    "P 1"
_space_group_IT_number       1

loop_
  _space_group_symop_operation_xyz
  'x, y, z'

loop_
  _atom_site_type_symbol
  _atom_site_label
  _atom_site_symmetry_multiplicity
  _atom_site_fract_x
  _atom_site_fract_y
  _atom_site_fract_z
  _atom_site_occupancy
  Ca  Ca1       1.0  0.11000  0.11000  0.11000  1.0000
  Ca  Ca2       1.0  0.39000  0.39000  0.39000  1.0000
  Ca  Ca3       1.0  0.89000  0.89000  0.89000  1.0000
  Ca  Ca4       1.0  0.61000  0.61000  0.61000  1.0000
  Ca  Ca5       1.0  0.05450  0.05450  0.05450  1.0000
  Ca  Ca6       1.0  0.44500  0.44500  0.44500  1.0000
  Ca  Ca7       1.0  0.94500  0.94500  0.94500  1.0000
  Ca  Ca8       1.0  0.55500  0.55500  0.55500  1.0000
  Ca  Ca9       1.0  0.00000  0.00000  0.00000  1.0000
  Ca  Ca10      1.0  0.50000  0.50000  0.50000  1.0000
  Ca  Ca11      1.0  0.19100  0.42700  0.94300  1.0000
  Ca  Ca12      1.0  0.94300  0.19100  0.42700  1.0000
  Ca  Ca13      1.0  0.42700  0.94300  0.19100  1.0000
  Ca  Ca14      1.0  0.07280  0.30900  0.55700  1.0000
  Ca  Ca15      1.0  0.30900  0.55700  0.07280  1.0000
  Ca  Ca16      1.0  0.55700  0.07280  0.30900  1.0000
  Ca  Ca17      1.0  0.80900  0.57300  0.05660  1.0000
  Ca  Ca18      1.0  0.05660  0.80900  0.57300  1.0000
  Ca  Ca19      1.0  0.57300  0.05660  0.80900  1.0000
  Ca  Ca20      1.0  0.92700  0.69100  0.44300  1.0000
  Ca  Ca21      1.0  0.69100  0.44300  0.92700  1.0000
  Ca  Ca22      1.0  0.44300  0.92700  0.69100  1.0000
  Ca  Ca23      1.0  0.49900  0.00141  0.25000  1.0000
  Ca  Ca24      1.0  0.25000  0.49900  0.00141  1.0000
  Ca  Ca25      1.0  0.00141  0.25000  0.49900  1.0000
  Ca  Ca26      1.0  0.50100  0.99900  0.75000  1.0000
  Ca  Ca27      1.0  0.75000  0.50100  0.99900  1.0000
  Ca  Ca28      1.0  0.99900  0.75000  0.50100  1.0000
  Si  Si1       1.0  0.83400  0.66600  0.25000  1.0000
  Si  Si2       1.0  0.25000  0.83400  0.66600  1.0000
  Si  Si3       1.0  0.66600  0.25000  0.83400  1.0000
  Si  Si4       1.0  0.16600  0.33400  0.75000  1.0000
  Si  Si5       1.0  0.75000  0.16600  0.33400  1.0000
  Si  Si6       1.0  0.33400  0.75000  0.16600  1.0000
  Si  Si7       1.0  0.21900  0.21900  0.21900  1.0000
  Si  Si8       1.0  0.28100  0.28100  0.28100  1.0000
  Si  Si9       1.0  0.78100  0.78100  0.78100  1.0000
  Si  Si10      1.0  0.71900  0.71900  0.71900  1.0000
  Si  Si11      1.0  0.15300  0.15300  0.15300  1.0000
  Si  Si12      1.0  0.34700  0.34700  0.34700  1.0000
  Si  Si13      1.0  0.84700  0.84700  0.84700  1.0000
  Si  Si14      1.0  0.65300  0.65300  0.65300  1.0000
  Si  Si15      1.0  0.44200  0.72500  0.99300  1.0000
  Si  Si16      1.0  0.99300  0.44200  0.72500  1.0000
  Si  Si17      1.0  0.72500  0.99300  0.44200  1.0000
  Si  Si18      1.0  0.77500  0.05810  0.50700  1.0000
  Si  Si19      1.0  0.05810  0.50700  0.77500  1.0000
  Si  Si20      1.0  0.50700  0.77500  0.05810  1.0000
  Si  Si21      1.0  0.55800  0.27500  0.00692  1.0000
  Si  Si22      1.0  0.00692  0.55800  0.27500  1.0000
  Si  Si23      1.0  0.27500  0.00692  0.55800  1.0000
  Si  Si24      1.0  0.22500  0.94200  0.49300  1.0000
  Si  Si25      1.0  0.94200  0.49300  0.22500  1.0000
  Si  Si26      1.0  0.49300  0.22500  0.94200  1.0000
  Si  Si27      1.0  0.21600  0.38100  0.83100  1.0000
  Si  Si28      1.0  0.83100  0.21600  0.38100  1.0000
  Si  Si29      1.0  0.38100  0.83100  0.21600  1.0000
  Si  Si30      1.0  0.11900  0.28400  0.66900  1.0000
  Si  Si31      1.0  0.28400  0.66900  0.11900  1.0000
  Si  Si32      1.0  0.66900  0.11900  0.28400  1.0000
  Si  Si33      1.0  0.78400  0.61900  0.16900  1.0000
  Si  Si34      1.0  0.16900  0.78400  0.61900  1.0000
  Si  Si35      1.0  0.61900  0.16900  0.78400  1.0000
  Si  Si36      1.0  0.88100  0.71600  0.33100  1.0000
  Si  Si37      1.0  0.71600  0.33100  0.88100  1.0000
  Si  Si38      1.0  0.33100  0.88100  0.71600  1.0000
