data_image0
_chemical_formula_structural       Ca8P10Pd10
_chemical_formula_sum              "Ca8 P10 Pd10"
_cell_length_a       15.8049
_cell_length_b       15.8049
_cell_length_c       8.1375
_cell_angle_alpha    90
_cell_angle_beta     90
_cell_angle_gamma    14.9049

_space_group_name_H-M_alt    "P 1"
_space_group_IT_number       1

loop_
  _space_group_symop_operation_xyz
  'x, y, z'

loop_
  _atom_site_type_symbol
  _atom_site_label
  _atom_site_symmetry_multiplicity
  _atom_site_fract_x
  _atom_site_fract_y
  _atom_site_fract_z
  _atom_site_occupancy
  Ca  Ca1       1.0  0.19400  0.19400  0.00549  1.0000
  Ca  Ca2       1.0  0.80600  0.80600  0.50500  1.0000
  Ca  Ca3       1.0  0.80600  0.80600  0.99500  1.0000
  Ca  Ca4       1.0  0.19400  0.19400  0.49500  1.0000
  Ca  Ca5       1.0  0.42000  0.42000  0.99800  1.0000
  Ca  Ca6       1.0  0.58000  0.58000  0.49800  1.0000
  Ca  Ca7       1.0  0.58000  0.58000  0.00153  1.0000
  Ca  Ca8       1.0  0.42000  0.42000  0.50200  1.0000
  P   P1        1.0  0.95400  0.95400  0.25000  1.0000
  P   P2        1.0  0.04630  0.04630  0.75000  1.0000
  P   P3        1.0  0.34200  0.34200  0.25000  1.0000
  P   P4        1.0  0.65800  0.65800  0.75000  1.0000
  P   P5        1.0  0.04510  0.04510  0.25000  1.0000
  P   P6        1.0  0.95500  0.95500  0.75000  1.0000
  P   P7        1.0  0.65800  0.65800  0.25000  1.0000
  P   P8        1.0  0.34200  0.34200  0.75000  1.0000
  P   P9        1.0  0.27100  0.27100  0.25000  1.0000
  P   P10       1.0  0.72900  0.72900  0.75000  1.0000
  Pd  Pd1       1.0  0.00000  0.00000  0.00000  1.0000
  Pd  Pd2       1.0  0.00000  0.00000  0.50000  1.0000
  Pd  Pd3       1.0  0.87900  0.87900  0.25000  1.0000
  Pd  Pd4       1.0  0.12100  0.12100  0.75000  1.0000
  Pd  Pd5       1.0  0.12000  0.12000  0.25000  1.0000
  Pd  Pd6       1.0  0.88000  0.88000  0.75000  1.0000
  Pd  Pd7       1.0  0.50000  0.50000  0.25000  1.0000
  Pd  Pd8       1.0  0.50000  0.50000  0.75000  1.0000
  Pd  Pd9       1.0  0.73400  0.73400  0.25000  1.0000
  Pd  Pd10      1.0  0.26600  0.26600  0.75000  1.0000
