data_image0
_chemical_formula_structural       Cl20Eu4Na8
_chemical_formula_sum              "Cl20 Eu4 Na8"
_cell_length_a       11.4818
_cell_length_b       8.3877
_cell_length_c       7.53361
_cell_angle_alpha    90
_cell_angle_beta     90
_cell_angle_gamma    90

_space_group_name_H-M_alt    "P 1"
_space_group_IT_number       1

loop_
  _space_group_symop_operation_xyz
  'x, y, z'

loop_
  _atom_site_type_symbol
  _atom_site_label
  _atom_site_symmetry_multiplicity
  _atom_site_fract_x
  _atom_site_fract_y
  _atom_site_fract_z
  _atom_site_occupancy
  Cl  Cl1       1.0  0.27300  0.25000  0.70100  1.0000
  Cl  Cl2       1.0  0.22700  0.75000  0.20100  1.0000
  Cl  Cl3       1.0  0.77300  0.25000  0.79900  1.0000
  Cl  Cl4       1.0  0.72700  0.75000  0.29900  1.0000
  Cl  Cl5       1.0  0.50100  0.25000  0.96700  1.0000
  Cl  Cl6       1.0  0.99900  0.75000  0.46700  1.0000
  Cl  Cl7       1.0  0.00051  0.25000  0.53300  1.0000
  Cl  Cl8       1.0  0.49900  0.75000  0.03290  1.0000
  Cl  Cl9       1.0  0.68700  0.25000  0.33200  1.0000
  Cl  Cl10      1.0  0.81300  0.75000  0.83200  1.0000
  Cl  Cl11      1.0  0.18700  0.25000  0.16800  1.0000
  Cl  Cl12      1.0  0.31300  0.75000  0.66800  1.0000
  Cl  Cl13      1.0  0.40900  0.44600  0.33300  1.0000
  Cl  Cl14      1.0  0.09060  0.55400  0.83300  1.0000
  Cl  Cl15      1.0  0.90900  0.05430  0.16700  1.0000
  Cl  Cl16      1.0  0.59100  0.94600  0.66700  1.0000
  Cl  Cl17      1.0  0.59100  0.55400  0.66700  1.0000
  Cl  Cl18      1.0  0.90900  0.44600  0.16700  1.0000
  Cl  Cl19      1.0  0.09060  0.94600  0.83300  1.0000
  Cl  Cl20      1.0  0.40900  0.05430  0.33300  1.0000
  Eu  Eu1       1.0  0.01350  0.25000  0.90700  1.0000
  Eu  Eu2       1.0  0.48700  0.75000  0.40700  1.0000
  Eu  Eu3       1.0  0.51300  0.25000  0.59300  1.0000
  Eu  Eu4       1.0  0.98700  0.75000  0.09280  1.0000
  Na  Na1       1.0  0.82400  0.50300  0.53800  1.0000
  Na  Na2       1.0  0.67600  0.49700  0.03760  1.0000
  Na  Na3       1.0  0.32400  0.99700  0.96200  1.0000
  Na  Na4       1.0  0.17600  0.00261  0.46200  1.0000
  Na  Na5       1.0  0.17600  0.49700  0.46200  1.0000
  Na  Na6       1.0  0.32400  0.50300  0.96200  1.0000
  Na  Na7       1.0  0.67600  0.00261  0.03760  1.0000
  Na  Na8       1.0  0.82400  0.99700  0.53800  1.0000
