data_image0
_chemical_formula_structural       Co2O18Se6Sr4
_chemical_formula_sum              "Co2 O18 Se6 Sr4"
_cell_length_a       7.07977
_cell_length_b       7.36794
_cell_length_c       8.49779
_cell_angle_alpha    102.242
_cell_angle_beta     105.174
_cell_angle_gamma    95.3177

_space_group_name_H-M_alt    "P 1"
_space_group_IT_number       1

loop_
  _space_group_symop_operation_xyz
  'x, y, z'

loop_
  _atom_site_type_symbol
  _atom_site_label
  _atom_site_symmetry_multiplicity
  _atom_site_fract_x
  _atom_site_fract_y
  _atom_site_fract_z
  _atom_site_occupancy
  Co  Co1       1.0  0.89500  0.67300  0.23700  1.0000
  Co  Co2       1.0  0.10500  0.32700  0.76300  1.0000
  O   O1        1.0  0.83100  0.35700  0.62000  1.0000
  O   O2        1.0  0.16900  0.64300  0.38000  1.0000
  O   O3        1.0  0.76000  0.59900  0.41100  1.0000
  O   O4        1.0  0.24000  0.40100  0.58900  1.0000
  O   O5        1.0  0.53900  0.27100  0.33800  1.0000
  O   O6        1.0  0.46100  0.72900  0.66200  1.0000
  O   O7        1.0  0.94100  0.17000  0.86300  1.0000
  O   O8        1.0  0.05920  0.83000  0.13700  1.0000
  O   O9        1.0  0.81300  0.41500  0.07410  1.0000
  O   O10       1.0  0.18700  0.58500  0.92600  1.0000
  O   O11       1.0  0.13000  0.25500  0.18800  1.0000
  O   O12       1.0  0.87000  0.74500  0.81200  1.0000
  O   O13       1.0  0.63100  0.71100  0.08290  1.0000
  O   O14       1.0  0.36900  0.28900  0.91700  1.0000
  O   O15       1.0  0.84900  0.97800  0.34000  1.0000
  O   O16       1.0  0.15100  0.02170  0.66000  1.0000
  O   O17       1.0  0.47800  0.87100  0.31500  1.0000
  O   O18       1.0  0.52200  0.12900  0.68500  1.0000
  Se  Se1       1.0  0.78500  0.36400  0.41300  1.0000
  Se  Se2       1.0  0.21400  0.63600  0.58700  1.0000
  Se  Se3       1.0  0.89800  0.20100  0.05530  1.0000
  Se  Se4       1.0  0.10200  0.79900  0.94500  1.0000
  Se  Se5       1.0  0.61700  0.93500  0.19200  1.0000
  Se  Se6       1.0  0.38300  0.06490  0.80800  1.0000
  Sr  Sr1       1.0  0.38300  0.51400  0.19700  1.0000
  Sr  Sr2       1.0  0.61700  0.48600  0.80300  1.0000
  Sr  Sr3       1.0  0.24400  0.07920  0.39900  1.0000
  Sr  Sr4       1.0  0.75600  0.92100  0.60100  1.0000
