data_image0
_chemical_formula_structural       Nb4O18Sr8
_chemical_formula_sum              "Nb4 O18 Sr8"
_cell_length_a       5.9029
_cell_length_b       14.7438
_cell_length_c       5.85123
_cell_angle_alpha    89.7528
_cell_angle_beta     120.103
_cell_angle_gamma    90.2824

_space_group_name_H-M_alt    "P 1"
_space_group_IT_number       1

loop_
  _space_group_symop_operation_xyz
  'x, y, z'

loop_
  _atom_site_type_symbol
  _atom_site_label
  _atom_site_symmetry_multiplicity
  _atom_site_fract_x
  _atom_site_fract_y
  _atom_site_fract_z
  _atom_site_occupancy
  Nb  Nb1       1.0  0.32000  0.34700  0.66900  1.0000
  Nb  Nb2       1.0  0.68000  0.65300  0.33100  1.0000
  Nb  Nb3       1.0  0.70100  0.85200  0.33700  1.0000
  Nb  Nb4       1.0  0.29900  0.14800  0.66300  1.0000
  O   O1        1.0  0.93900  0.60000  0.65600  1.0000
  O   O2        1.0  0.06140  0.40000  0.34400  1.0000
  O   O3        1.0  0.74200  0.60400  0.06980  1.0000
  O   O4        1.0  0.25800  0.39600  0.93000  1.0000
  O   O5        1.0  0.37300  0.59300  0.27900  1.0000
  O   O6        1.0  0.62700  0.40700  0.72100  1.0000
  O   O7        1.0  0.54900  0.24700  0.96200  1.0000
  O   O8        1.0  0.45100  0.75300  0.03830  1.0000
  O   O9        1.0  0.39500  0.24300  0.45100  1.0000
  O   O10       1.0  0.60500  0.75700  0.54900  1.0000
  O   O11       1.0  0.00487  0.25100  0.58400  1.0000
  O   O12       1.0  0.99500  0.74900  0.41600  1.0000
  O   O13       1.0  0.03440  0.09280  0.34900  1.0000
  O   O14       1.0  0.96600  0.90700  0.65100  1.0000
  O   O15       1.0  0.22400  0.11500  0.93200  1.0000
  O   O16       1.0  0.77600  0.88500  0.06760  1.0000
  O   O17       1.0  0.57900  0.07020  0.72300  1.0000
  O   O18       1.0  0.42100  0.93000  0.27700  1.0000
  Sr  Sr1       1.0  0.63400  0.12100  0.34200  1.0000
  Sr  Sr2       1.0  0.36600  0.87900  0.65800  1.0000
  Sr  Sr3       1.0  0.98800  0.25300  0.00717  1.0000
  Sr  Sr4       1.0  0.01180  0.74700  0.99300  1.0000
  Sr  Sr5       1.0  0.00000  0.00000  0.00000  1.0000
  Sr  Sr6       1.0  0.00000  0.50000  0.00000  1.0000
  Sr  Sr7       1.0  0.34300  0.63600  0.66300  1.0000
  Sr  Sr8       1.0  0.65700  0.36400  0.33700  1.0000
