data_image0
_chemical_formula_structural       O22U4V4
_chemical_formula_sum              "O22 U4 V4"
_cell_length_a       5.10239
_cell_length_b       13.2542
_cell_length_c       7.20256
_cell_angle_alpha    90
_cell_angle_beta     121.738
_cell_angle_gamma    90

_space_group_name_H-M_alt    "P 1"
_space_group_IT_number       1

loop_
  _space_group_symop_operation_xyz
  'x, y, z'

loop_
  _atom_site_type_symbol
  _atom_site_label
  _atom_site_symmetry_multiplicity
  _atom_site_fract_x
  _atom_site_fract_y
  _atom_site_fract_z
  _atom_site_occupancy
  O   O1        1.0  0.86800  0.49600  0.68400  1.0000
  O   O2        1.0  0.13200  0.99600  0.81600  1.0000
  O   O3        1.0  0.13200  0.50400  0.31600  1.0000
  O   O4        1.0  0.86800  0.00433  0.18400  1.0000
  O   O5        1.0  0.57100  0.66500  0.46300  1.0000
  O   O6        1.0  0.42900  0.16500  0.03730  1.0000
  O   O7        1.0  0.42900  0.33500  0.53700  1.0000
  O   O8        1.0  0.57100  0.83500  0.96300  1.0000
  O   O9        1.0  0.23000  0.65900  0.67700  1.0000
  O   O10       1.0  0.77000  0.15900  0.82300  1.0000
  O   O11       1.0  0.77000  0.34100  0.32300  1.0000
  O   O12       1.0  0.23000  0.84100  0.17700  1.0000
  O   O13       1.0  0.50000  0.50000  0.00000  1.0000
  O   O14       1.0  0.50000  0.00000  0.50000  1.0000
  O   O15       1.0  0.76400  0.67900  0.19500  1.0000
  O   O16       1.0  0.23600  0.17900  0.30500  1.0000
  O   O17       1.0  0.23600  0.32100  0.80500  1.0000
  O   O18       1.0  0.76400  0.82100  0.69500  1.0000
  O   O19       1.0  0.09880  0.65700  0.98200  1.0000
  O   O20       1.0  0.90100  0.15700  0.51800  1.0000
  O   O21       1.0  0.90100  0.34300  0.01790  1.0000
  O   O22       1.0  0.09880  0.84300  0.48200  1.0000
  U   U1        1.0  0.16900  0.67600  0.33100  1.0000
  U   U2        1.0  0.83100  0.17600  0.16900  1.0000
  U   U3        1.0  0.83100  0.32400  0.66900  1.0000
  U   U4        1.0  0.16900  0.82400  0.83100  1.0000
  V   V1        1.0  0.17000  0.57400  0.83100  1.0000
  V   V2        1.0  0.83000  0.07410  0.66900  1.0000
  V   V3        1.0  0.83000  0.42600  0.16900  1.0000
  V   V4        1.0  0.17000  0.92600  0.33100  1.0000
