data_image0
_chemical_formula_structural       Ca4Li4O26Si10
_chemical_formula_sum              "Ca4 Li4 O26 Si10"
_cell_length_a       7.13886
_cell_length_b       7.37941
_cell_length_c       9.76512
_cell_angle_alpha    85.8791
_cell_angle_beta     69.7983
_cell_angle_gamma    75.1658

_space_group_name_H-M_alt    "P 1"
_space_group_IT_number       1

loop_
  _space_group_symop_operation_xyz
  'x, y, z'

loop_
  _atom_site_type_symbol
  _atom_site_label
  _atom_site_symmetry_multiplicity
  _atom_site_fract_x
  _atom_site_fract_y
  _atom_site_fract_z
  _atom_site_occupancy
  Ca  Ca1       1.0  0.04400  0.12800  0.61500  1.0000
  Ca  Ca2       1.0  0.95600  0.87200  0.38500  1.0000
  Ca  Ca3       1.0  0.47900  0.83000  0.37600  1.0000
  Ca  Ca4       1.0  0.52100  0.17000  0.62400  1.0000
  Li  Li1       1.0  0.83800  0.93900  0.05310  1.0000
  Li  Li2       1.0  0.16200  0.06140  0.94700  1.0000
  Li  Li3       1.0  0.09030  0.44200  0.76100  1.0000
  Li  Li4       1.0  0.91000  0.55800  0.23900  1.0000
  O   O1        1.0  0.69600  0.82900  0.91100  1.0000
  O   O2        1.0  0.30400  0.17100  0.08860  1.0000
  O   O3        1.0  0.06160  0.88900  0.13100  1.0000
  O   O4        1.0  0.93800  0.11100  0.86900  1.0000
  O   O5        1.0  0.73600  0.74100  0.16300  1.0000
  O   O6        1.0  0.26400  0.25900  0.83700  1.0000
  O   O7        1.0  0.53000  0.43900  0.34300  1.0000
  O   O8        1.0  0.47000  0.56100  0.65700  1.0000
  O   O9        1.0  0.67000  0.19500  0.12400  1.0000
  O   O10       1.0  0.33000  0.80500  0.87500  1.0000
  O   O11       1.0  0.23300  0.33900  0.56500  1.0000
  O   O12       1.0  0.76700  0.66100  0.43500  1.0000
  O   O13       1.0  0.65300  0.06860  0.38100  1.0000
  O   O14       1.0  0.34700  0.93100  0.61900  1.0000
  O   O15       1.0  0.17700  0.53200  0.03060  1.0000
  O   O16       1.0  0.82300  0.46800  0.96900  1.0000
  O   O17       1.0  0.20200  0.69300  0.45800  1.0000
  O   O18       1.0  0.79800  0.30700  0.54200  1.0000
  O   O19       1.0  0.43200  0.66500  0.10800  1.0000
  O   O20       1.0  0.56800  0.33500  0.89200  1.0000
  O   O21       1.0  0.92200  0.28500  0.23600  1.0000
  O   O22       1.0  0.07770  0.71500  0.76400  1.0000
  O   O23       1.0  0.18800  0.05270  0.36200  1.0000
  O   O24       1.0  0.81200  0.94700  0.63800  1.0000
  O   O25       1.0  0.17900  0.41900  0.30700  1.0000
  O   O26       1.0  0.82100  0.58100  0.69300  1.0000
  Si  Si1       1.0  0.69400  0.24200  0.27900  1.0000
  Si  Si2       1.0  0.30600  0.75800  0.72100  1.0000
  Si  Si3       1.0  0.27600  0.47300  0.42700  1.0000
  Si  Si4       1.0  0.72400  0.52700  0.57300  1.0000
  Si  Si5       1.0  0.15000  0.22200  0.25800  1.0000
  Si  Si6       1.0  0.85000  0.77800  0.74200  1.0000
  Si  Si7       1.0  0.67200  0.67300  0.04000  1.0000
  Si  Si8       1.0  0.32800  0.32700  0.96000  1.0000
  Si  Si9       1.0  0.75400  0.27500  0.95900  1.0000
  Si  Si10      1.0  0.24600  0.72500  0.04090  1.0000
