data_image0
_chemical_formula_structural       CsO19P5Ti3
_chemical_formula_sum              "Cs1 O19 P5 Ti3"
_cell_length_a       8.25503
_cell_length_b       8.25503
_cell_length_c       6.21918
_cell_angle_alpha    82.4845
_cell_angle_beta     97.5155
_cell_angle_gamma    65.2012

_space_group_name_H-M_alt    "P 1"
_space_group_IT_number       1

loop_
  _space_group_symop_operation_xyz
  'x, y, z'

loop_
  _atom_site_type_symbol
  _atom_site_label
  _atom_site_symmetry_multiplicity
  _atom_site_fract_x
  _atom_site_fract_y
  _atom_site_fract_z
  _atom_site_occupancy
  Cs  Cs1       1.0  0.89500  0.10500  0.47800  1.0000
  O   O1        1.0  0.01940  0.31200  0.82500  1.0000
  O   O2        1.0  0.68800  0.98100  0.82500  1.0000
  O   O3        1.0  0.35100  0.11300  0.88500  1.0000
  O   O4        1.0  0.88700  0.64900  0.88500  1.0000
  O   O5        1.0  0.77200  0.53800  0.50700  1.0000
  O   O6        1.0  0.46200  0.22800  0.50700  1.0000
  O   O7        1.0  0.15000  0.03250  0.12000  1.0000
  O   O8        1.0  0.96700  0.85000  0.12000  1.0000
  O   O9        1.0  0.70000  0.30000  0.81200  1.0000
  O   O10       1.0  0.72800  0.77900  0.19200  1.0000
  O   O11       1.0  0.22100  0.27200  0.19200  1.0000
  O   O12       1.0  0.76000  0.46500  0.13700  1.0000
  O   O13       1.0  0.53500  0.24000  0.13700  1.0000
  O   O14       1.0  0.47700  0.71200  0.22500  1.0000
  O   O15       1.0  0.28800  0.52300  0.22500  1.0000
  O   O16       1.0  0.51600  0.66800  0.75100  1.0000
  O   O17       1.0  0.33200  0.48400  0.75100  1.0000
  O   O18       1.0  0.20800  0.79200  0.85700  1.0000
  O   O19       1.0  0.22000  0.78000  0.47700  1.0000
  P   P1        1.0  0.68100  0.61600  0.26600  1.0000
  P   P2        1.0  0.38400  0.31900  0.26600  1.0000
  P   P3        1.0  0.18800  0.17800  0.99300  1.0000
  P   P4        1.0  0.82200  0.81200  0.99300  1.0000
  P   P5        1.0  0.32400  0.67600  0.71200  1.0000
  Ti  Ti1       1.0  0.22300  0.77700  0.17100  1.0000
  Ti  Ti2       1.0  0.51500  0.23200  0.81700  1.0000
  Ti  Ti3       1.0  0.76800  0.48500  0.81700  1.0000
