data_image0
_chemical_formula_structural       Ca4Li16O32Si8Sr4
_chemical_formula_sum              "Ca4 Li16 O32 Si8 Sr4"
_cell_length_a       4.92363
_cell_length_b       9.78059
_cell_length_c       13.827
_cell_angle_alpha    90
_cell_angle_beta     90
_cell_angle_gamma    90

_space_group_name_H-M_alt    "P 1"
_space_group_IT_number       1

loop_
  _space_group_symop_operation_xyz
  'x, y, z'

loop_
  _atom_site_type_symbol
  _atom_site_label
  _atom_site_symmetry_multiplicity
  _atom_site_fract_x
  _atom_site_fract_y
  _atom_site_fract_z
  _atom_site_occupancy
  Ca  Ca1       1.0  0.50000  0.00000  0.50000  1.0000
  Ca  Ca2       1.0  0.50000  0.00000  0.00000  1.0000
  Ca  Ca3       1.0  0.50000  0.50000  0.50000  1.0000
  Ca  Ca4       1.0  0.50000  0.50000  0.00000  1.0000
  Li  Li1       1.0  0.96300  0.99400  0.87300  1.0000
  Li  Li2       1.0  0.03670  0.00582  0.37300  1.0000
  Li  Li3       1.0  0.96300  0.50600  0.12700  1.0000
  Li  Li4       1.0  0.03670  0.49400  0.62700  1.0000
  Li  Li5       1.0  0.03670  0.00582  0.12700  1.0000
  Li  Li6       1.0  0.96300  0.99400  0.62700  1.0000
  Li  Li7       1.0  0.03670  0.49400  0.87300  1.0000
  Li  Li8       1.0  0.96300  0.50600  0.37300  1.0000
  Li  Li9       1.0  0.52000  0.22400  0.62700  1.0000
  Li  Li10      1.0  0.48000  0.77600  0.12700  1.0000
  Li  Li11      1.0  0.52000  0.27600  0.37300  1.0000
  Li  Li12      1.0  0.48000  0.72400  0.87300  1.0000
  Li  Li13      1.0  0.48000  0.77600  0.37300  1.0000
  Li  Li14      1.0  0.52000  0.22400  0.87300  1.0000
  Li  Li15      1.0  0.48000  0.72400  0.62700  1.0000
  Li  Li16      1.0  0.52000  0.27600  0.12700  1.0000
  O   O1        1.0  0.82400  0.14800  0.56100  1.0000
  O   O2        1.0  0.17600  0.85200  0.06150  1.0000
  O   O3        1.0  0.82400  0.35200  0.43900  1.0000
  O   O4        1.0  0.17600  0.64800  0.93900  1.0000
  O   O5        1.0  0.17600  0.85200  0.43900  1.0000
  O   O6        1.0  0.82400  0.14800  0.93900  1.0000
  O   O7        1.0  0.17600  0.64800  0.56100  1.0000
  O   O8        1.0  0.82400  0.35200  0.06150  1.0000
  O   O9        1.0  0.21900  0.33500  0.92500  1.0000
  O   O10       1.0  0.78100  0.66500  0.42500  1.0000
  O   O11       1.0  0.21900  0.16500  0.07510  1.0000
  O   O12       1.0  0.78100  0.83500  0.57500  1.0000
  O   O13       1.0  0.78100  0.66500  0.07510  1.0000
  O   O14       1.0  0.21900  0.33500  0.57500  1.0000
  O   O15       1.0  0.78100  0.83500  0.92500  1.0000
  O   O16       1.0  0.21900  0.16500  0.42500  1.0000
  O   O17       1.0  0.33400  0.04530  0.65400  1.0000
  O   O18       1.0  0.66600  0.95500  0.15400  1.0000
  O   O19       1.0  0.33400  0.45500  0.34600  1.0000
  O   O20       1.0  0.66600  0.54500  0.84600  1.0000
  O   O21       1.0  0.66600  0.95500  0.34600  1.0000
  O   O22       1.0  0.33400  0.04530  0.84600  1.0000
  O   O23       1.0  0.66600  0.54500  0.65400  1.0000
  O   O24       1.0  0.33400  0.45500  0.15400  1.0000
  O   O25       1.0  0.80400  0.99900  0.75000  1.0000
  O   O26       1.0  0.19600  0.00075  0.25000  1.0000
  O   O27       1.0  0.80400  0.50100  0.25000  1.0000
  O   O28       1.0  0.19600  0.49900  0.75000  1.0000
  O   O29       1.0  0.58300  0.30900  0.75000  1.0000
  O   O30       1.0  0.41700  0.69100  0.25000  1.0000
  O   O31       1.0  0.58300  0.19100  0.25000  1.0000
  O   O32       1.0  0.41700  0.80900  0.75000  1.0000
  Si  Si1       1.0  0.02360  0.25000  0.00000  1.0000
  Si  Si2       1.0  0.97600  0.75000  0.50000  1.0000
  Si  Si3       1.0  0.97600  0.75000  0.00000  1.0000
  Si  Si4       1.0  0.02360  0.25000  0.50000  1.0000
  Si  Si5       1.0  0.47600  0.97500  0.75000  1.0000
  Si  Si6       1.0  0.52400  0.02540  0.25000  1.0000
  Si  Si7       1.0  0.47600  0.52500  0.25000  1.0000
  Si  Si8       1.0  0.52400  0.47500  0.75000  1.0000
  Sr  Sr1       1.0  0.05700  0.23100  0.75000  1.0000
  Sr  Sr2       1.0  0.94300  0.76900  0.25000  1.0000
  Sr  Sr3       1.0  0.05700  0.26900  0.25000  1.0000
  Sr  Sr4       1.0  0.94300  0.73100  0.75000  1.0000
