data_image0
_chemical_formula_structural       CuGe6La2
_chemical_formula_sum              "Cu1 Ge6 La2"
_cell_length_a       4.21986
_cell_length_b       4.15585
_cell_length_c       11.3308
_cell_angle_alpha    79.4329
_cell_angle_beta     90
_cell_angle_gamma    90

_space_group_name_H-M_alt    "P 1"
_space_group_IT_number       1

loop_
  _space_group_symop_operation_xyz
  'x, y, z'

loop_
  _atom_site_type_symbol
  _atom_site_label
  _atom_site_symmetry_multiplicity
  _atom_site_fract_x
  _atom_site_fract_y
  _atom_site_fract_z
  _atom_site_occupancy
  Cu  Cu1       1.0  0.50000  0.77300  0.45400  1.0000
  Ge  Ge1       1.0  0.50000  0.44800  0.10300  1.0000
  Ge  Ge2       1.0  0.50000  0.88200  0.23700  1.0000
  Ge  Ge3       1.0  0.00000  0.71600  0.56800  1.0000
  Ge  Ge4       1.0  0.50000  0.21500  0.56900  1.0000
  Ge  Ge5       1.0  0.00000  0.60400  0.79100  1.0000
  Ge  Ge6       1.0  0.50000  0.10300  0.79400  1.0000
  La  La1       1.0  0.00000  0.99800  0.00447  1.0000
  La  La2       1.0  0.00000  0.32900  0.34100  1.0000
