data_image0
_chemical_formula_structural       O16Pr9
_chemical_formula_sum              "O16 Pr9"
_cell_length_a       6.84143
_cell_length_b       8.96977
_cell_length_c       6.71192
_cell_angle_alpha    100.727
_cell_angle_beta     97.6325
_cell_angle_gamma    74.8124

_space_group_name_H-M_alt    "P 1"
_space_group_IT_number       1

loop_
  _space_group_symop_operation_xyz
  'x, y, z'

loop_
  _atom_site_type_symbol
  _atom_site_label
  _atom_site_symmetry_multiplicity
  _atom_site_fract_x
  _atom_site_fract_y
  _atom_site_fract_z
  _atom_site_occupancy
  O   O1        1.0  0.38700  0.30600  0.78800  1.0000
  O   O2        1.0  0.61300  0.69400  0.21200  1.0000
  O   O3        1.0  0.91800  0.05390  0.67400  1.0000
  O   O4        1.0  0.08220  0.94600  0.32600  1.0000
  O   O5        1.0  0.99400  0.33100  0.51800  1.0000
  O   O6        1.0  0.00642  0.66900  0.48200  1.0000
  O   O7        1.0  0.51500  0.14800  0.43800  1.0000
  O   O8        1.0  0.48500  0.85200  0.56200  1.0000
  O   O9        1.0  0.55300  0.46000  0.41500  1.0000
  O   O10       1.0  0.44700  0.54000  0.58500  1.0000
  O   O11       1.0  0.29800  0.04910  0.93200  1.0000
  O   O12       1.0  0.70200  0.95100  0.06840  1.0000
  O   O13       1.0  0.19500  0.45800  0.12400  1.0000
  O   O14       1.0  0.80500  0.54200  0.87600  1.0000
  O   O15       1.0  0.77800  0.25800  0.04420  1.0000
  O   O16       1.0  0.22200  0.74200  0.95600  1.0000
  Pr  Pr1       1.0  0.71100  0.30800  0.69600  1.0000
  Pr  Pr2       1.0  0.28900  0.69200  0.30400  1.0000
  Pr  Pr3       1.0  0.88300  0.47400  0.23400  1.0000
  Pr  Pr4       1.0  0.11700  0.52600  0.76600  1.0000
  Pr  Pr5       1.0  0.00000  0.00000  0.00000  1.0000
  Pr  Pr6       1.0  0.46900  0.22600  0.11800  1.0000
  Pr  Pr7       1.0  0.53100  0.77400  0.88200  1.0000
  Pr  Pr8       1.0  0.24100  0.10000  0.59200  1.0000
  Pr  Pr9       1.0  0.75900  0.90000  0.40800  1.0000
