data_image0
_chemical_formula_structural       O18P6Ru2
_chemical_formula_sum              "O18 P6 Ru2"
_cell_length_a       6.59028
_cell_length_b       9.76945
_cell_length_c       4.78722
_cell_angle_alpha    93.8632
_cell_angle_beta     91.5714
_cell_angle_gamma    99.3602

_space_group_name_H-M_alt    "P 1"
_space_group_IT_number       1

loop_
  _space_group_symop_operation_xyz
  'x, y, z'

loop_
  _atom_site_type_symbol
  _atom_site_label
  _atom_site_symmetry_multiplicity
  _atom_site_fract_x
  _atom_site_fract_y
  _atom_site_fract_z
  _atom_site_occupancy
  O   O1        1.0  0.31000  0.32800  0.08390  1.0000
  O   O2        1.0  0.69000  0.67200  0.91600  1.0000
  O   O3        1.0  0.31200  0.06490  0.08790  1.0000
  O   O4        1.0  0.68800  0.93500  0.91200  1.0000
  O   O5        1.0  0.31200  0.61800  0.18900  1.0000
  O   O6        1.0  0.68800  0.38200  0.81100  1.0000
  O   O7        1.0  0.05290  0.81600  0.14100  1.0000
  O   O8        1.0  0.94700  0.18400  0.85900  1.0000
  O   O9        1.0  0.76300  0.79000  0.47400  1.0000
  O   O10       1.0  0.23700  0.21000  0.52600  1.0000
  O   O11       1.0  0.69000  0.49800  0.34600  1.0000
  O   O12       1.0  0.31000  0.50200  0.65400  1.0000
  O   O13       1.0  0.58600  0.23300  0.35700  1.0000
  O   O14       1.0  0.41400  0.76700  0.64300  1.0000
  O   O15       1.0  0.05660  0.66200  0.54100  1.0000
  O   O16       1.0  0.94300  0.33800  0.45900  1.0000
  O   O17       1.0  0.11600  0.92500  0.64100  1.0000
  O   O18       1.0  0.88400  0.07530  0.35900  1.0000
  P   P1        1.0  0.99600  0.19200  0.55500  1.0000
  P   P2        1.0  0.00427  0.80800  0.44500  1.0000
  P   P3        1.0  0.64400  0.79300  0.76100  1.0000
  P   P4        1.0  0.35600  0.20700  0.23900  1.0000
  P   P5        1.0  0.71900  0.37400  0.50000  1.0000
  P   P6        1.0  0.28000  0.62600  0.50000  1.0000
  Ru  Ru1       1.0  0.50000  0.50000  0.00000  1.0000
  Ru  Ru2       1.0  0.00000  0.00000  0.00000  1.0000
