data_image0
_chemical_formula_structural       Be6Br2Li8O24P6
_chemical_formula_sum              "Be6 Br2 Li8 O24 P6"
_cell_length_a       7.90962
_cell_length_b       7.90962
_cell_length_c       7.90962
_cell_angle_alpha    90
_cell_angle_beta     90
_cell_angle_gamma    90

_space_group_name_H-M_alt    "P 1"
_space_group_IT_number       1

loop_
  _space_group_symop_operation_xyz
  'x, y, z'

loop_
  _atom_site_type_symbol
  _atom_site_label
  _atom_site_symmetry_multiplicity
  _atom_site_fract_x
  _atom_site_fract_y
  _atom_site_fract_z
  _atom_site_occupancy
  Be  Be1       1.0  0.25000  0.00000  0.50000  1.0000
  Be  Be2       1.0  0.75000  0.00000  0.50000  1.0000
  Be  Be3       1.0  0.50000  0.25000  0.00000  1.0000
  Be  Be4       1.0  0.00000  0.50000  0.25000  1.0000
  Be  Be5       1.0  0.50000  0.75000  0.00000  1.0000
  Be  Be6       1.0  0.00000  0.50000  0.75000  1.0000
  Br  Br1       1.0  0.00000  0.00000  0.00000  1.0000
  Br  Br2       1.0  0.50000  0.50000  0.50000  1.0000
  Li  Li1       1.0  0.17600  0.17600  0.17600  1.0000
  Li  Li2       1.0  0.82400  0.82400  0.17600  1.0000
  Li  Li3       1.0  0.17600  0.82400  0.82400  1.0000
  Li  Li4       1.0  0.82400  0.17600  0.82400  1.0000
  Li  Li5       1.0  0.67600  0.67600  0.67600  1.0000
  Li  Li6       1.0  0.32400  0.32400  0.67600  1.0000
  Li  Li7       1.0  0.32400  0.67600  0.32400  1.0000
  Li  Li8       1.0  0.67600  0.32400  0.32400  1.0000
  O   O1        1.0  0.14200  0.41100  0.13500  1.0000
  O   O2        1.0  0.85800  0.58900  0.13500  1.0000
  O   O3        1.0  0.14200  0.58900  0.86500  1.0000
  O   O4        1.0  0.85800  0.41100  0.86500  1.0000
  O   O5        1.0  0.13500  0.14200  0.41100  1.0000
  O   O6        1.0  0.41100  0.13500  0.14200  1.0000
  O   O7        1.0  0.86500  0.85800  0.41100  1.0000
  O   O8        1.0  0.58900  0.13500  0.85800  1.0000
  O   O9        1.0  0.13500  0.85800  0.58900  1.0000
  O   O10       1.0  0.58900  0.86500  0.14200  1.0000
  O   O11       1.0  0.86500  0.14200  0.58900  1.0000
  O   O12       1.0  0.41100  0.86500  0.85800  1.0000
  O   O13       1.0  0.91100  0.64200  0.63500  1.0000
  O   O14       1.0  0.08870  0.35800  0.63500  1.0000
  O   O15       1.0  0.08870  0.64200  0.36500  1.0000
  O   O16       1.0  0.91100  0.35800  0.36500  1.0000
  O   O17       1.0  0.64200  0.63500  0.91100  1.0000
  O   O18       1.0  0.63500  0.91100  0.64200  1.0000
  O   O19       1.0  0.35800  0.36500  0.91100  1.0000
  O   O20       1.0  0.63500  0.08870  0.35800  1.0000
  O   O21       1.0  0.35800  0.63500  0.08870  1.0000
  O   O22       1.0  0.36500  0.08870  0.64200  1.0000
  O   O23       1.0  0.64200  0.36500  0.08870  1.0000
  O   O24       1.0  0.36500  0.91100  0.35800  1.0000
  P   P1        1.0  0.25000  0.50000  0.00000  1.0000
  P   P2        1.0  0.75000  0.50000  0.00000  1.0000
  P   P3        1.0  0.00000  0.25000  0.50000  1.0000
  P   P4        1.0  0.50000  0.00000  0.25000  1.0000
  P   P5        1.0  0.00000  0.75000  0.50000  1.0000
  P   P6        1.0  0.50000  0.00000  0.75000  1.0000
