data_image0
_chemical_formula_structural       F6PtRb2
_chemical_formula_sum              "F6 Pt1 Rb2"
_cell_length_a       5.78147
_cell_length_b       5.78143
_cell_length_c       4.59743
_cell_angle_alpha    90
_cell_angle_beta     90.0002
_cell_angle_gamma    120

_space_group_name_H-M_alt    "P 1"
_space_group_IT_number       1

loop_
  _space_group_symop_operation_xyz
  'x, y, z'

loop_
  _atom_site_type_symbol
  _atom_site_label
  _atom_site_symmetry_multiplicity
  _atom_site_fract_x
  _atom_site_fract_y
  _atom_site_fract_z
  _atom_site_occupancy
  F   F1        1.0  0.67000  0.83500  0.23100  1.0000
  F   F2        1.0  0.16500  0.33000  0.23100  1.0000
  F   F3        1.0  0.16500  0.83500  0.23100  1.0000
  F   F4        1.0  0.83500  0.16500  0.76900  1.0000
  F   F5        1.0  0.83500  0.67000  0.76900  1.0000
  F   F6        1.0  0.33000  0.16500  0.76900  1.0000
  Pt  Pt1       1.0  0.00000  0.00000  0.00000  1.0000
  Rb  Rb1       1.0  0.66700  0.33300  0.28600  1.0000
  Rb  Rb2       1.0  0.33300  0.66700  0.71400  1.0000
