data_image0
_chemical_formula_structural       Al4Cs4F24Pd4
_chemical_formula_sum              "Al4 Cs4 F24 Pd4"
_cell_length_a       6.92378
_cell_length_b       6.78001
_cell_length_c       9.22093
_cell_angle_alpha    90
_cell_angle_beta     90
_cell_angle_gamma    90

_space_group_name_H-M_alt    "P 1"
_space_group_IT_number       1

loop_
  _space_group_symop_operation_xyz
  'x, y, z'

loop_
  _atom_site_type_symbol
  _atom_site_label
  _atom_site_symmetry_multiplicity
  _atom_site_fract_x
  _atom_site_fract_y
  _atom_site_fract_z
  _atom_site_occupancy
  Al  Al1       1.0  0.00000  0.00000  0.00000  1.0000
  Al  Al2       1.0  0.50000  0.00000  0.50000  1.0000
  Al  Al3       1.0  0.50000  0.50000  0.50000  1.0000
  Al  Al4       1.0  0.00000  0.50000  0.00000  1.0000
  Cs  Cs1       1.0  0.43200  0.25000  0.12600  1.0000
  Cs  Cs2       1.0  0.06770  0.75000  0.62600  1.0000
  Cs  Cs3       1.0  0.93200  0.25000  0.37400  1.0000
  Cs  Cs4       1.0  0.56800  0.75000  0.87400  1.0000
  F   F1        1.0  0.07310  0.25000  0.64900  1.0000
  F   F2        1.0  0.42700  0.75000  0.14900  1.0000
  F   F3        1.0  0.57300  0.25000  0.85100  1.0000
  F   F4        1.0  0.92700  0.75000  0.35100  1.0000
  F   F5        1.0  0.02570  0.25000  0.96900  1.0000
  F   F6        1.0  0.47400  0.75000  0.46900  1.0000
  F   F7        1.0  0.52600  0.25000  0.53000  1.0000
  F   F8        1.0  0.97400  0.75000  0.03050  1.0000
  F   F9        1.0  0.39100  0.97500  0.67200  1.0000
  F   F10       1.0  0.10900  0.02480  0.17200  1.0000
  F   F11       1.0  0.89100  0.52500  0.82800  1.0000
  F   F12       1.0  0.60900  0.47500  0.32800  1.0000
  F   F13       1.0  0.60900  0.02480  0.32800  1.0000
  F   F14       1.0  0.89100  0.97500  0.82800  1.0000
  F   F15       1.0  0.10900  0.47500  0.17200  1.0000
  F   F16       1.0  0.39100  0.52500  0.67200  1.0000
  F   F17       1.0  0.23100  0.97000  0.91900  1.0000
  F   F18       1.0  0.26900  0.02970  0.41900  1.0000
  F   F19       1.0  0.73100  0.53000  0.58100  1.0000
  F   F20       1.0  0.76900  0.47000  0.08130  1.0000
  F   F21       1.0  0.76900  0.02970  0.08130  1.0000
  F   F22       1.0  0.73100  0.97000  0.58100  1.0000
  F   F23       1.0  0.26900  0.47000  0.41900  1.0000
  F   F24       1.0  0.23100  0.53000  0.91900  1.0000
  Pd  Pd1       1.0  0.30600  0.25000  0.77400  1.0000
  Pd  Pd2       1.0  0.19400  0.75000  0.27400  1.0000
  Pd  Pd3       1.0  0.80600  0.25000  0.72600  1.0000
  Pd  Pd4       1.0  0.69400  0.75000  0.22600  1.0000
