data_image0
_chemical_formula_structural       Fe2Hf16Te12
_chemical_formula_sum              "Fe2 Hf16 Te12"
_cell_length_a       25.9647
_cell_length_b       3.73335
_cell_length_c       7.67547
_cell_angle_alpha    90
_cell_angle_beta     90
_cell_angle_gamma    90

_space_group_name_H-M_alt    "P 1"
_space_group_IT_number       1

loop_
  _space_group_symop_operation_xyz
  'x, y, z'

loop_
  _atom_site_type_symbol
  _atom_site_label
  _atom_site_symmetry_multiplicity
  _atom_site_fract_x
  _atom_site_fract_y
  _atom_site_fract_z
  _atom_site_occupancy
  Fe  Fe1       1.0  0.75000  0.25000  0.69500  1.0000
  Fe  Fe2       1.0  0.25000  0.75000  0.30500  1.0000
  Hf  Hf1       1.0  0.65200  0.25000  0.44300  1.0000
  Hf  Hf2       1.0  0.84800  0.25000  0.44300  1.0000
  Hf  Hf3       1.0  0.15200  0.75000  0.55700  1.0000
  Hf  Hf4       1.0  0.34800  0.75000  0.55700  1.0000
  Hf  Hf5       1.0  0.75000  0.75000  0.42700  1.0000
  Hf  Hf6       1.0  0.25000  0.25000  0.57300  1.0000
  Hf  Hf7       1.0  0.55200  0.75000  0.55500  1.0000
  Hf  Hf8       1.0  0.94800  0.75000  0.55500  1.0000
  Hf  Hf9       1.0  0.05170  0.25000  0.44500  1.0000
  Hf  Hf10      1.0  0.44800  0.25000  0.44500  1.0000
  Hf  Hf11      1.0  0.75000  0.25000  0.04020  1.0000
  Hf  Hf12      1.0  0.25000  0.75000  0.96000  1.0000
  Hf  Hf13      1.0  0.68400  0.75000  0.76000  1.0000
  Hf  Hf14      1.0  0.81600  0.75000  0.76000  1.0000
  Hf  Hf15      1.0  0.18400  0.25000  0.24000  1.0000
  Hf  Hf16      1.0  0.31600  0.25000  0.24000  1.0000
  Te  Te1       1.0  0.66800  0.75000  0.14800  1.0000
  Te  Te2       1.0  0.83200  0.75000  0.14800  1.0000
  Te  Te3       1.0  0.16800  0.25000  0.85200  1.0000
  Te  Te4       1.0  0.33200  0.25000  0.85200  1.0000
  Te  Te5       1.0  0.59400  0.25000  0.79800  1.0000
  Te  Te6       1.0  0.90600  0.25000  0.79800  1.0000
  Te  Te7       1.0  0.09410  0.75000  0.20200  1.0000
  Te  Te8       1.0  0.40600  0.75000  0.20200  1.0000
  Te  Te9       1.0  0.54700  0.25000  0.27300  1.0000
  Te  Te10      1.0  0.95300  0.25000  0.27300  1.0000
  Te  Te11      1.0  0.04740  0.75000  0.72700  1.0000
  Te  Te12      1.0  0.45300  0.75000  0.72700  1.0000
