data_image0
_chemical_formula_structural       Ge2In8La6
_chemical_formula_sum              "Ge2 In8 La6"
_cell_length_a       8.64261
_cell_length_b       8.64261
_cell_length_c       8.64261
_cell_angle_alpha    119.653
_cell_angle_beta     119.653
_cell_angle_gamma    90.6018

_space_group_name_H-M_alt    "P 1"
_space_group_IT_number       1

loop_
  _space_group_symop_operation_xyz
  'x, y, z'

loop_
  _atom_site_type_symbol
  _atom_site_label
  _atom_site_symmetry_multiplicity
  _atom_site_fract_x
  _atom_site_fract_y
  _atom_site_fract_z
  _atom_site_occupancy
  Ge  Ge1       1.0  0.00000  0.00000  0.00000  1.0000
  Ge  Ge2       1.0  0.50000  0.50000  0.00000  1.0000
  In  In1       1.0  0.82600  0.32600  0.78700  1.0000
  In  In2       1.0  0.53900  0.03930  0.21300  1.0000
  In  In3       1.0  0.67400  0.46100  0.50000  1.0000
  In  In4       1.0  0.96100  0.17400  0.50000  1.0000
  In  In5       1.0  0.17400  0.67400  0.21300  1.0000
  In  In6       1.0  0.46100  0.96100  0.78700  1.0000
  In  In7       1.0  0.03930  0.82600  0.50000  1.0000
  In  In8       1.0  0.32600  0.53900  0.50000  1.0000
  La  La1       1.0  0.25000  0.25000  0.00000  1.0000
  La  La2       1.0  0.75000  0.75000  0.00000  1.0000
  La  La3       1.0  0.83600  0.33600  0.17300  1.0000
  La  La4       1.0  0.16400  0.66400  0.82700  1.0000
  La  La5       1.0  0.66400  0.83600  0.50000  1.0000
  La  La6       1.0  0.33600  0.16400  0.50000  1.0000
