data_image0
_chemical_formula_structural       Cu4Se14U6
_chemical_formula_sum              "Cu4 Se14 U6"
_cell_length_a       10.0865
_cell_length_b       10.0871
_cell_length_c       5.94822
_cell_angle_alpha    90
_cell_angle_beta     90
_cell_angle_gamma    120.004

_space_group_name_H-M_alt    "P 1"
_space_group_IT_number       1

loop_
  _space_group_symop_operation_xyz
  'x, y, z'

loop_
  _atom_site_type_symbol
  _atom_site_label
  _atom_site_symmetry_multiplicity
  _atom_site_fract_x
  _atom_site_fract_y
  _atom_site_fract_z
  _atom_site_occupancy
  Cu  Cu1       1.0  0.33300  0.66700  0.66300  1.0000
  Cu  Cu2       1.0  0.66700  0.33300  0.16300  1.0000
  Cu  Cu3       1.0  0.00000  0.00001  0.00000  1.0000
  Cu  Cu4       1.0  0.00000  0.00000  0.50000  1.0000
  Se  Se1       1.0  0.33300  0.66700  0.25800  1.0000
  Se  Se2       1.0  0.66700  0.33300  0.75800  1.0000
  Se  Se3       1.0  0.26600  0.15300  0.01350  1.0000
  Se  Se4       1.0  0.73400  0.84700  0.51400  1.0000
  Se  Se5       1.0  0.84700  0.11300  0.01350  1.0000
  Se  Se6       1.0  0.88700  0.73400  0.01350  1.0000
  Se  Se7       1.0  0.11300  0.26600  0.51400  1.0000
  Se  Se8       1.0  0.15300  0.88700  0.51400  1.0000
  Se  Se9       1.0  0.51300  0.07290  0.27700  1.0000
  Se  Se10      1.0  0.48700  0.92700  0.77700  1.0000
  Se  Se11      1.0  0.92700  0.44000  0.27700  1.0000
  Se  Se12      1.0  0.56000  0.48700  0.27700  1.0000
  Se  Se13      1.0  0.44000  0.51300  0.77700  1.0000
  Se  Se14      1.0  0.07290  0.56000  0.77700  1.0000
  U   U1        1.0  0.15500  0.37900  0.02610  1.0000
  U   U2        1.0  0.84500  0.62100  0.52600  1.0000
  U   U3        1.0  0.62100  0.77600  0.02610  1.0000
  U   U4        1.0  0.22400  0.84500  0.02610  1.0000
  U   U5        1.0  0.77600  0.15500  0.52600  1.0000
  U   U6        1.0  0.37900  0.22400  0.52600  1.0000
