data_image0
_chemical_formula_structural       F6Li2Nb
_chemical_formula_sum              "F6 Li2 Nb1"
_cell_length_a       4.81756
_cell_length_b       4.82031
_cell_length_c       4.54254
_cell_angle_alpha    90.0821
_cell_angle_beta     89.9769
_cell_angle_gamma    120.024

_space_group_name_H-M_alt    "P 1"
_space_group_IT_number       1

loop_
  _space_group_symop_operation_xyz
  'x, y, z'

loop_
  _atom_site_type_symbol
  _atom_site_label
  _atom_site_symmetry_multiplicity
  _atom_site_fract_x
  _atom_site_fract_y
  _atom_site_fract_z
  _atom_site_occupancy
  F   F1        1.0  0.66500  0.66500  0.25900  1.0000
  F   F2        1.0  0.00000  0.33500  0.25900  1.0000
  F   F3        1.0  0.33500  0.00000  0.25900  1.0000
  F   F4        1.0  0.66500  0.00000  0.74100  1.0000
  F   F5        1.0  0.00001  0.66500  0.74100  1.0000
  F   F6        1.0  0.33500  0.33500  0.74100  1.0000
  Li  Li1       1.0  0.66700  0.33300  0.50000  1.0000
  Li  Li2       1.0  0.33300  0.66700  0.50000  1.0000
  Nb  Nb1       1.0  0.00000  0.00000  0.00000  1.0000
