data_image0
_chemical_formula_structural       Br14Re6Te14
_chemical_formula_sum              "Br14 Re6 Te14"
_cell_length_a       12.9317
_cell_length_b       12.9317
_cell_length_c       12.9317
_cell_angle_alpha    46.3796
_cell_angle_beta     46.3796
_cell_angle_gamma    46.3797

_space_group_name_H-M_alt    "P 1"
_space_group_IT_number       1

loop_
  _space_group_symop_operation_xyz
  'x, y, z'

loop_
  _atom_site_type_symbol
  _atom_site_label
  _atom_site_symmetry_multiplicity
  _atom_site_fract_x
  _atom_site_fract_y
  _atom_site_fract_z
  _atom_site_occupancy
  Br  Br1       1.0  0.55800  0.95700  0.85400  1.0000
  Br  Br2       1.0  0.85400  0.55800  0.95700  1.0000
  Br  Br3       1.0  0.95700  0.85400  0.55800  1.0000
  Br  Br4       1.0  0.44200  0.04320  0.14600  1.0000
  Br  Br5       1.0  0.14600  0.44200  0.04320  1.0000
  Br  Br6       1.0  0.04320  0.14600  0.44200  1.0000
  Br  Br7       1.0  0.29800  0.37600  0.71200  1.0000
  Br  Br8       1.0  0.71200  0.29800  0.37500  1.0000
  Br  Br9       1.0  0.37600  0.71200  0.29800  1.0000
  Br  Br10      1.0  0.70200  0.62400  0.28800  1.0000
  Br  Br11      1.0  0.28800  0.70200  0.62400  1.0000
  Br  Br12      1.0  0.62500  0.28800  0.70200  1.0000
  Br  Br13      1.0  0.36200  0.36200  0.36200  1.0000
  Br  Br14      1.0  0.63800  0.63800  0.63800  1.0000
  Re  Re1       1.0  0.17000  0.05910  0.86800  1.0000
  Re  Re2       1.0  0.86800  0.17000  0.05910  1.0000
  Re  Re3       1.0  0.05910  0.86800  0.17000  1.0000
  Re  Re4       1.0  0.83000  0.94100  0.13200  1.0000
  Re  Re5       1.0  0.13200  0.83000  0.94100  1.0000
  Re  Re6       1.0  0.94100  0.13200  0.83000  1.0000
  Te  Te1       1.0  0.09620  0.09620  0.09620  1.0000
  Te  Te2       1.0  0.90400  0.90400  0.90400  1.0000
  Te  Te3       1.0  0.36200  0.75400  0.97800  1.0000
  Te  Te4       1.0  0.97800  0.36200  0.75400  1.0000
  Te  Te5       1.0  0.75400  0.97800  0.36200  1.0000
  Te  Te6       1.0  0.63800  0.24600  0.02190  1.0000
  Te  Te7       1.0  0.02190  0.63800  0.24600  1.0000
  Te  Te8       1.0  0.24600  0.02190  0.63800  1.0000
  Te  Te9       1.0  0.41100  0.13600  0.68000  1.0000
  Te  Te10      1.0  0.68000  0.41100  0.13600  1.0000
  Te  Te11      1.0  0.13600  0.68000  0.41100  1.0000
  Te  Te12      1.0  0.58900  0.86400  0.32000  1.0000
  Te  Te13      1.0  0.32000  0.58900  0.86400  1.0000
  Te  Te14      1.0  0.86400  0.32000  0.58900  1.0000
