data_image0
_chemical_formula_structural       Br8O8Pb12
_chemical_formula_sum              "Br8 O8 Pb12"
_cell_length_a       12.1648
_cell_length_b       5.88224
_cell_length_c       9.73907
_cell_angle_alpha    90
_cell_angle_beta     90
_cell_angle_gamma    90

_space_group_name_H-M_alt    "P 1"
_space_group_IT_number       1

loop_
  _space_group_symop_operation_xyz
  'x, y, z'

loop_
  _atom_site_type_symbol
  _atom_site_label
  _atom_site_symmetry_multiplicity
  _atom_site_fract_x
  _atom_site_fract_y
  _atom_site_fract_z
  _atom_site_occupancy
  Br  Br1       1.0  0.81300  0.25000  0.80200  1.0000
  Br  Br2       1.0  0.68700  0.75000  0.30200  1.0000
  Br  Br3       1.0  0.31300  0.25000  0.69800  1.0000
  Br  Br4       1.0  0.18700  0.75000  0.19800  1.0000
  Br  Br5       1.0  0.37000  0.25000  0.07090  1.0000
  Br  Br6       1.0  0.13000  0.75000  0.57100  1.0000
  Br  Br7       1.0  0.87000  0.25000  0.42900  1.0000
  Br  Br8       1.0  0.63000  0.75000  0.92900  1.0000
  O   O1        1.0  0.41900  0.99700  0.38800  1.0000
  O   O2        1.0  0.08060  0.00341  0.88800  1.0000
  O   O3        1.0  0.91900  0.50300  0.11200  1.0000
  O   O4        1.0  0.58100  0.49700  0.61200  1.0000
  O   O5        1.0  0.58100  0.00341  0.61200  1.0000
  O   O6        1.0  0.91900  0.99700  0.11200  1.0000
  O   O7        1.0  0.08060  0.49700  0.88800  1.0000
  O   O8        1.0  0.41900  0.50300  0.38800  1.0000
  Pb  Pb1       1.0  0.07690  0.25000  0.08090  1.0000
  Pb  Pb2       1.0  0.42300  0.75000  0.58100  1.0000
  Pb  Pb3       1.0  0.57700  0.25000  0.41900  1.0000
  Pb  Pb4       1.0  0.92300  0.75000  0.91900  1.0000
  Pb  Pb5       1.0  0.56100  0.25000  0.79400  1.0000
  Pb  Pb6       1.0  0.93900  0.75000  0.29400  1.0000
  Pb  Pb7       1.0  0.06100  0.25000  0.70600  1.0000
  Pb  Pb8       1.0  0.43900  0.75000  0.20600  1.0000
  Pb  Pb9       1.0  0.28100  0.25000  0.36800  1.0000
  Pb  Pb10      1.0  0.21900  0.75000  0.86800  1.0000
  Pb  Pb11      1.0  0.78100  0.25000  0.13200  1.0000
  Pb  Pb12      1.0  0.71900  0.75000  0.63200  1.0000
