data_image0
_chemical_formula_structural       Dy2In4Ni2
_chemical_formula_sum              "Dy2 In4 Ni2"
_cell_length_a       4.32203
_cell_length_b       5.65008
_cell_length_c       7.40139
_cell_angle_alpha    90
_cell_angle_beta     90
_cell_angle_gamma    67.5129

_space_group_name_H-M_alt    "P 1"
_space_group_IT_number       1

loop_
  _space_group_symop_operation_xyz
  'x, y, z'

loop_
  _atom_site_type_symbol
  _atom_site_label
  _atom_site_symmetry_multiplicity
  _atom_site_fract_x
  _atom_site_fract_y
  _atom_site_fract_z
  _atom_site_occupancy
  Dy  Dy1       1.0  0.56800  0.86400  0.25000  1.0000
  Dy  Dy2       1.0  0.43200  0.13600  0.75000  1.0000
  In  In1       1.0  0.85600  0.28700  0.04900  1.0000
  In  In2       1.0  0.85600  0.28700  0.45100  1.0000
  In  In3       1.0  0.14400  0.71300  0.54900  1.0000
  In  In4       1.0  0.14400  0.71300  0.95100  1.0000
  Ni  Ni1       1.0  0.28600  0.42800  0.25000  1.0000
  Ni  Ni2       1.0  0.71400  0.57200  0.75000  1.0000
