data_image0
_chemical_formula_structural       F6RhZn
_chemical_formula_sum              "F6 Rh1 Zn1"
_cell_length_a       4.80102
_cell_length_b       4.80102
_cell_length_c       5.24407
_cell_angle_alpha    117.242
_cell_angle_beta     90
_cell_angle_gamma    60

_space_group_name_H-M_alt    "P 1"
_space_group_IT_number       1

loop_
  _space_group_symop_operation_xyz
  'x, y, z'

loop_
  _atom_site_type_symbol
  _atom_site_label
  _atom_site_symmetry_multiplicity
  _atom_site_fract_x
  _atom_site_fract_y
  _atom_site_fract_z
  _atom_site_occupancy
  F   F1        1.0  0.24000  0.17900  0.24800  1.0000
  F   F2        1.0  0.58100  0.48800  0.24800  1.0000
  F   F3        1.0  0.93200  0.82800  0.24800  1.0000
  F   F4        1.0  0.06850  0.17200  0.75200  1.0000
  F   F5        1.0  0.41900  0.51200  0.75200  1.0000
  F   F6        1.0  0.76000  0.82100  0.75200  1.0000
  Rh  Rh1       1.0  0.00000  0.00000  0.00000  1.0000
  Zn  Zn1       1.0  0.50000  0.00000  0.50000  1.0000
