data_image0
_chemical_formula_structural       AsGa
_chemical_formula_sum              "As1 Ga1"
_cell_length_a       2.67325
_cell_length_b       5.25666
_cell_length_c       2.79178
_cell_angle_alpha    90
_cell_angle_beta     90
_cell_angle_gamma    90

_space_group_name_H-M_alt    "P 1"
_space_group_IT_number       1

loop_
  _space_group_symop_operation_xyz
  'x, y, z'

loop_
  _atom_site_type_symbol
  _atom_site_label
  _atom_site_symmetry_multiplicity
  _atom_site_fract_x
  _atom_site_fract_y
  _atom_site_fract_z
  _atom_site_occupancy
  As  As1       1.0  0.00000  0.00000  0.00015  1.0000
  Ga  Ga1       1.0  0.00000  0.50000  0.35000  1.0000
