data_image0
_chemical_formula_structural       Ge6La4O18
_chemical_formula_sum              "Ge6 La4 O18"
_cell_length_a       7.60767
_cell_length_b       5.64649
_cell_length_c       11.159
_cell_angle_alpha    79.2188
_cell_angle_beta     121.416
_cell_angle_gamma    88.2807

_space_group_name_H-M_alt    "P 1"
_space_group_IT_number       1

loop_
  _space_group_symop_operation_xyz
  'x, y, z'

loop_
  _atom_site_type_symbol
  _atom_site_label
  _atom_site_symmetry_multiplicity
  _atom_site_fract_x
  _atom_site_fract_y
  _atom_site_fract_z
  _atom_site_occupancy
  Ge  Ge1       1.0  0.38600  0.10900  0.19600  1.0000
  Ge  Ge2       1.0  0.61400  0.89100  0.80400  1.0000
  Ge  Ge3       1.0  0.01370  0.05850  0.36700  1.0000
  Ge  Ge4       1.0  0.98600  0.94100  0.63300  1.0000
  Ge  Ge5       1.0  0.51900  0.25500  0.50300  1.0000
  Ge  Ge6       1.0  0.48100  0.74500  0.49700  1.0000
  La  La1       1.0  0.09060  0.59700  0.17800  1.0000
  La  La2       1.0  0.90900  0.40300  0.82200  1.0000
  La  La3       1.0  0.26900  0.38600  0.69000  1.0000
  La  La4       1.0  0.73100  0.61400  0.31000  1.0000
  O   O1        1.0  0.31000  0.50000  0.46300  1.0000
  O   O2        1.0  0.69000  0.50000  0.53700  1.0000
  O   O3        1.0  0.13000  0.24700  0.06840  1.0000
  O   O4        1.0  0.87000  0.75300  0.93200  1.0000
  O   O5        1.0  0.04460  0.14400  0.74900  1.0000
  O   O6        1.0  0.95500  0.85600  0.25100  1.0000
  O   O7        1.0  0.39300  0.81600  0.29900  1.0000
  O   O8        1.0  0.60700  0.18400  0.70100  1.0000
  O   O9        1.0  0.89700  0.35200  0.23900  1.0000
  O   O10       1.0  0.10300  0.64800  0.76100  1.0000
  O   O11       1.0  0.56800  0.01820  0.16100  1.0000
  O   O12       1.0  0.43200  0.98200  0.83900  1.0000
  O   O13       1.0  0.46000  0.32900  0.30700  1.0000
  O   O14       1.0  0.54000  0.67100  0.69300  1.0000
  O   O15       1.0  0.30800  0.03480  0.45600  1.0000
  O   O16       1.0  0.69200  0.96500  0.54400  1.0000
  O   O17       1.0  0.00083  0.21200  0.50200  1.0000
  O   O18       1.0  0.99900  0.78800  0.49800  1.0000
