data_image0
_chemical_formula_structural       Mn6P3
_chemical_formula_sum              "Mn6 P3"
_cell_length_a       6.05808
_cell_length_b       6.05816
_cell_length_c       3.24642
_cell_angle_alpha    90
_cell_angle_beta     90
_cell_angle_gamma    119.994

_space_group_name_H-M_alt    "P 1"
_space_group_IT_number       1

loop_
  _space_group_symop_operation_xyz
  'x, y, z'

loop_
  _atom_site_type_symbol
  _atom_site_label
  _atom_site_symmetry_multiplicity
  _atom_site_fract_x
  _atom_site_fract_y
  _atom_site_fract_z
  _atom_site_occupancy
  Mn  Mn1       1.0  0.25600  0.00002  0.00000  1.0000
  Mn  Mn2       1.0  0.00003  0.25600  0.00000  1.0000
  Mn  Mn3       1.0  0.74400  0.74400  0.00000  1.0000
  Mn  Mn4       1.0  0.60000  0.00002  0.50000  1.0000
  Mn  Mn5       1.0  0.40000  0.40000  0.50000  1.0000
  Mn  Mn6       1.0  0.00002  0.60000  0.50000  1.0000
  P   P1        1.0  0.66700  0.33300  0.00000  1.0000
  P   P2        1.0  0.33300  0.66700  0.00000  1.0000
  P   P3        1.0  0.00004  0.00003  0.50000  1.0000
