data_image0
_chemical_formula_structural       Li4Ni6O28P8
_chemical_formula_sum              "Li4 Ni6 O28 P8"
_cell_length_a       6.8844
_cell_length_b       7.61899
_cell_length_c       9.02669
_cell_angle_alpha    90
_cell_angle_beta     109.823
_cell_angle_gamma    90

_space_group_name_H-M_alt    "P 1"
_space_group_IT_number       1

loop_
  _space_group_symop_operation_xyz
  'x, y, z'

loop_
  _atom_site_type_symbol
  _atom_site_label
  _atom_site_symmetry_multiplicity
  _atom_site_fract_x
  _atom_site_fract_y
  _atom_site_fract_z
  _atom_site_occupancy
  Li  Li1       1.0  0.69700  0.09470  0.61400  1.0000
  Li  Li2       1.0  0.30300  0.59500  0.88600  1.0000
  Li  Li3       1.0  0.30300  0.90500  0.38600  1.0000
  Li  Li4       1.0  0.69700  0.40500  0.11400  1.0000
  Ni  Ni1       1.0  0.81000  0.12500  0.97200  1.0000
  Ni  Ni2       1.0  0.19000  0.62500  0.52800  1.0000
  Ni  Ni3       1.0  0.19000  0.87500  0.02770  1.0000
  Ni  Ni4       1.0  0.81000  0.37500  0.47200  1.0000
  Ni  Ni5       1.0  0.00000  0.00000  0.50000  1.0000
  Ni  Ni6       1.0  0.00000  0.50000  0.00000  1.0000
  O   O1        1.0  0.17200  0.37900  0.89800  1.0000
  O   O2        1.0  0.82800  0.87900  0.60200  1.0000
  O   O3        1.0  0.82800  0.62100  0.10200  1.0000
  O   O4        1.0  0.17200  0.12100  0.39800  1.0000
  O   O5        1.0  0.27800  0.87500  0.62300  1.0000
  O   O6        1.0  0.72200  0.37500  0.87700  1.0000
  O   O7        1.0  0.72200  0.12500  0.37700  1.0000
  O   O8        1.0  0.27800  0.62500  0.12300  1.0000
  O   O9        1.0  0.40100  0.83500  0.91700  1.0000
  O   O10       1.0  0.59900  0.33500  0.58300  1.0000
  O   O11       1.0  0.59900  0.16500  0.08300  1.0000
  O   O12       1.0  0.40100  0.66500  0.41700  1.0000
  O   O13       1.0  0.63600  0.98700  0.78900  1.0000
  O   O14       1.0  0.36400  0.48700  0.71100  1.0000
  O   O15       1.0  0.36400  0.01320  0.21100  1.0000
  O   O16       1.0  0.63600  0.51300  0.28900  1.0000
  O   O17       1.0  0.98400  0.21200  0.63600  1.0000
  O   O18       1.0  0.01560  0.71200  0.86400  1.0000
  O   O19       1.0  0.01560  0.78800  0.36400  1.0000
  O   O20       1.0  0.98400  0.28800  0.13600  1.0000
  O   O21       1.0  0.04720  0.07300  0.89400  1.0000
  O   O22       1.0  0.95300  0.57300  0.60600  1.0000
  O   O23       1.0  0.95300  0.92700  0.10600  1.0000
  O   O24       1.0  0.04720  0.42700  0.39400  1.0000
  O   O25       1.0  0.33800  0.14200  0.79500  1.0000
  O   O26       1.0  0.66200  0.64200  0.70500  1.0000
  O   O27       1.0  0.66200  0.85800  0.20500  1.0000
  O   O28       1.0  0.33800  0.35800  0.29500  1.0000
  P   P1        1.0  0.41800  0.94600  0.78300  1.0000
  P   P2        1.0  0.58200  0.44600  0.71700  1.0000
  P   P3        1.0  0.58200  0.05370  0.21700  1.0000
  P   P4        1.0  0.41800  0.55400  0.28300  1.0000
  P   P5        1.0  0.12900  0.21000  0.80800  1.0000
  P   P6        1.0  0.87100  0.71000  0.69200  1.0000
  P   P7        1.0  0.87100  0.79000  0.19200  1.0000
  P   P8        1.0  0.12900  0.29000  0.30800  1.0000
