data_image0
_chemical_formula_structural       Bi6Cl20Te4
_chemical_formula_sum              "Bi6 Cl20 Te4"
_cell_length_a       7.30364
_cell_length_b       8.84123
_cell_length_c       14.0802
_cell_angle_alpha    89.9603
_cell_angle_beta     83.0217
_cell_angle_gamma    89.2888

_space_group_name_H-M_alt    "P 1"
_space_group_IT_number       1

loop_
  _space_group_symop_operation_xyz
  'x, y, z'

loop_
  _atom_site_type_symbol
  _atom_site_label
  _atom_site_symmetry_multiplicity
  _atom_site_fract_x
  _atom_site_fract_y
  _atom_site_fract_z
  _atom_site_occupancy
  Bi  Bi1       1.0  0.57900  0.47800  0.74300  1.0000
  Bi  Bi2       1.0  0.42100  0.52200  0.25700  1.0000
  Bi  Bi3       1.0  0.08400  0.26400  0.02150  1.0000
  Bi  Bi4       1.0  0.91600  0.73600  0.97900  1.0000
  Bi  Bi5       1.0  0.43900  0.97200  0.83200  1.0000
  Bi  Bi6       1.0  0.56100  0.02800  0.16800  1.0000
  Cl  Cl1       1.0  0.41500  0.32300  0.94000  1.0000
  Cl  Cl2       1.0  0.58500  0.67700  0.06040  1.0000
  Cl  Cl3       1.0  0.13700  0.11000  0.80800  1.0000
  Cl  Cl4       1.0  0.86300  0.89000  0.19200  1.0000
  Cl  Cl5       1.0  0.67800  0.19500  0.72300  1.0000
  Cl  Cl6       1.0  0.32200  0.80500  0.27700  1.0000
  Cl  Cl7       1.0  0.24500  0.96500  0.02360  1.0000
  Cl  Cl8       1.0  0.75500  0.03520  0.97600  1.0000
  Cl  Cl9       1.0  0.81000  0.52800  0.59400  1.0000
  Cl  Cl10      1.0  0.19000  0.47200  0.40600  1.0000
  Cl  Cl11      1.0  0.31900  0.45200  0.64500  1.0000
  Cl  Cl12      1.0  0.68100  0.54800  0.35500  1.0000
  Cl  Cl13      1.0  0.22300  0.22700  0.19300  1.0000
  Cl  Cl14      1.0  0.77700  0.77300  0.80700  1.0000
  Cl  Cl15      1.0  0.54600  0.12100  0.34800  1.0000
  Cl  Cl16      1.0  0.45400  0.87900  0.65200  1.0000
  Cl  Cl17      1.0  0.27600  0.70300  0.85300  1.0000
  Cl  Cl18      1.0  0.72400  0.29700  0.14700  1.0000
  Cl  Cl19      1.0  0.90700  0.45300  0.89900  1.0000
  Cl  Cl20      1.0  0.09260  0.54700  0.10100  1.0000
  Te  Te1       1.0  0.07110  0.82100  0.56500  1.0000
  Te  Te2       1.0  0.92900  0.17900  0.43500  1.0000
  Te  Te3       1.0  0.19900  0.10900  0.54600  1.0000
  Te  Te4       1.0  0.80100  0.89100  0.45400  1.0000
