data_image0
_chemical_formula_structural       I15La10Os2
_chemical_formula_sum              "I15 La10 Os2"
_cell_length_a       10.105
_cell_length_b       11.0532
_cell_length_c       11.8866
_cell_angle_alpha    92.2323
_cell_angle_beta     113.792
_cell_angle_gamma    110.472

_space_group_name_H-M_alt    "P 1"
_space_group_IT_number       1

loop_
  _space_group_symop_operation_xyz
  'x, y, z'

loop_
  _atom_site_type_symbol
  _atom_site_label
  _atom_site_symmetry_multiplicity
  _atom_site_fract_x
  _atom_site_fract_y
  _atom_site_fract_z
  _atom_site_occupancy
  I   I1        1.0  0.50000  0.50000  0.00000  1.0000
  I   I2        1.0  0.34200  0.44500  0.30100  1.0000
  I   I3        1.0  0.65800  0.55500  0.69900  1.0000
  I   I4        1.0  0.14600  0.38600  0.58000  1.0000
  I   I5        1.0  0.85400  0.61400  0.42000  1.0000
  I   I6        1.0  0.22300  0.74300  0.82200  1.0000
  I   I7        1.0  0.77700  0.25700  0.17800  1.0000
  I   I8        1.0  0.27500  0.09050  0.05620  1.0000
  I   I9        1.0  0.72500  0.91000  0.94400  1.0000
  I   I10       1.0  0.39100  0.79400  0.53200  1.0000
  I   I11       1.0  0.60900  0.20600  0.46800  1.0000
  I   I12       1.0  0.09140  0.04480  0.34400  1.0000
  I   I13       1.0  0.90900  0.95500  0.65600  1.0000
  I   I14       1.0  0.57100  0.85200  0.23600  1.0000
  I   I15       1.0  0.42900  0.14800  0.76400  1.0000
  La  La1       1.0  0.83400  0.75300  0.17900  1.0000
  La  La2       1.0  0.16600  0.24700  0.82100  1.0000
  La  La3       1.0  0.97500  0.79700  0.90400  1.0000
  La  La4       1.0  0.02470  0.20300  0.09560  1.0000
  La  La5       1.0  0.22800  0.58300  0.05400  1.0000
  La  La6       1.0  0.77200  0.41700  0.94600  1.0000
  La  La7       1.0  0.30000  0.90900  0.27900  1.0000
  La  La8       1.0  0.70000  0.09150  0.72100  1.0000
  La  La9       1.0  0.08340  0.54200  0.32800  1.0000
  La  La10      1.0  0.91700  0.45800  0.67200  1.0000
  Os  Os1       1.0  0.03140  0.67600  0.12100  1.0000
  Os  Os2       1.0  0.96900  0.32400  0.87900  1.0000
