data_image0
_chemical_formula_structural       RbSe6Th2
_chemical_formula_sum              "Rb1 Se6 Th2"
_cell_length_a       4.25313
_cell_length_b       5.60113
_cell_length_c       11.9741
_cell_angle_alpha    103.526
_cell_angle_beta     100.23
_cell_angle_gamma    90

_space_group_name_H-M_alt    "P 1"
_space_group_IT_number       1

loop_
  _space_group_symop_operation_xyz
  'x, y, z'

loop_
  _atom_site_type_symbol
  _atom_site_label
  _atom_site_symmetry_multiplicity
  _atom_site_fract_x
  _atom_site_fract_y
  _atom_site_fract_z
  _atom_site_occupancy
  Rb  Rb1       1.0  0.00000  0.00000  0.00000  1.0000
  Se  Se1       1.0  0.60800  0.36300  0.21600  1.0000
  Se  Se2       1.0  0.60800  0.85300  0.21600  1.0000
  Se  Se3       1.0  0.22900  0.22900  0.45800  1.0000
  Se  Se4       1.0  0.77100  0.77100  0.54200  1.0000
  Se  Se5       1.0  0.39200  0.14700  0.78400  1.0000
  Se  Se6       1.0  0.39200  0.63700  0.78400  1.0000
  Th  Th1       1.0  0.18000  0.68000  0.36000  1.0000
  Th  Th2       1.0  0.82000  0.32000  0.64000  1.0000
