data_image0
_chemical_formula_structural       Ag4S16Ta4Tl8
_chemical_formula_sum              "Ag4 S16 Ta4 Tl8"
_cell_length_a       8.00441
_cell_length_b       10.5435
_cell_length_c       10.0755
_cell_angle_alpha    90
_cell_angle_beta     90.3934
_cell_angle_gamma    90

_space_group_name_H-M_alt    "P 1"
_space_group_IT_number       1

loop_
  _space_group_symop_operation_xyz
  'x, y, z'

loop_
  _atom_site_type_symbol
  _atom_site_label
  _atom_site_symmetry_multiplicity
  _atom_site_fract_x
  _atom_site_fract_y
  _atom_site_fract_z
  _atom_site_occupancy
  Ag  Ag1       1.0  0.88700  0.98700  0.78600  1.0000
  Ag  Ag2       1.0  0.61300  0.48700  0.71400  1.0000
  Ag  Ag3       1.0  0.11300  0.01330  0.21400  1.0000
  Ag  Ag4       1.0  0.38700  0.51300  0.28600  1.0000
  S   S1        1.0  0.06240  0.19100  0.77900  1.0000
  S   S2        1.0  0.43800  0.69100  0.72100  1.0000
  S   S3        1.0  0.93800  0.80900  0.22100  1.0000
  S   S4        1.0  0.56200  0.30900  0.27900  1.0000
  S   S5        1.0  0.25300  0.07880  0.43500  1.0000
  S   S6        1.0  0.24700  0.57900  0.06470  1.0000
  S   S7        1.0  0.74700  0.92100  0.56500  1.0000
  S   S8        1.0  0.75300  0.42100  0.93500  1.0000
  S   S9        1.0  0.68400  0.07110  0.96600  1.0000
  S   S10       1.0  0.81600  0.57100  0.53400  1.0000
  S   S11       1.0  0.31600  0.92900  0.03360  1.0000
  S   S12       1.0  0.18400  0.42900  0.46600  1.0000
  S   S13       1.0  0.03040  0.23900  0.14700  1.0000
  S   S14       1.0  0.47000  0.73900  0.35300  1.0000
  S   S15       1.0  0.97000  0.76100  0.85300  1.0000
  S   S16       1.0  0.53000  0.26100  0.64700  1.0000
  Ta  Ta1       1.0  0.88200  0.22700  0.95300  1.0000
  Ta  Ta2       1.0  0.61800  0.72700  0.54700  1.0000
  Ta  Ta3       1.0  0.11800  0.77300  0.04680  1.0000
  Ta  Ta4       1.0  0.38200  0.27300  0.45300  1.0000
  Tl  Tl1       1.0  0.61800  0.99900  0.27300  1.0000
  Tl  Tl2       1.0  0.88200  0.49900  0.22700  1.0000
  Tl  Tl3       1.0  0.38200  0.00081  0.72700  1.0000
  Tl  Tl4       1.0  0.11800  0.50100  0.77300  1.0000
  Tl  Tl5       1.0  0.89100  0.22600  0.48800  1.0000
  Tl  Tl6       1.0  0.60900  0.72600  0.01220  1.0000
  Tl  Tl7       1.0  0.10900  0.77400  0.51200  1.0000
  Tl  Tl8       1.0  0.39100  0.27400  0.98800  1.0000
