data_image0
_chemical_formula_structural       Cs2Mo12Te14
_chemical_formula_sum              "Cs2 Mo12 Te14"
_cell_length_a       10.3966
_cell_length_b       10.3966
_cell_length_c       10.3966
_cell_angle_alpha    59.0323
_cell_angle_beta     59.0323
_cell_angle_gamma    59.0323

_space_group_name_H-M_alt    "P 1"
_space_group_IT_number       1

loop_
  _space_group_symop_operation_xyz
  'x, y, z'

loop_
  _atom_site_type_symbol
  _atom_site_label
  _atom_site_symmetry_multiplicity
  _atom_site_fract_x
  _atom_site_fract_y
  _atom_site_fract_z
  _atom_site_occupancy
  Cs  Cs1       1.0  0.37600  0.37600  0.37600  1.0000
  Cs  Cs2       1.0  0.62400  0.62400  0.62400  1.0000
  Mo  Mo1       1.0  0.05940  0.18800  0.88600  1.0000
  Mo  Mo2       1.0  0.88600  0.05940  0.18800  1.0000
  Mo  Mo3       1.0  0.18800  0.88600  0.05940  1.0000
  Mo  Mo4       1.0  0.94100  0.81200  0.11400  1.0000
  Mo  Mo5       1.0  0.11400  0.94100  0.81200  1.0000
  Mo  Mo6       1.0  0.81200  0.11400  0.94100  1.0000
  Mo  Mo7       1.0  0.29500  0.11500  0.99700  1.0000
  Mo  Mo8       1.0  0.99700  0.29500  0.11500  1.0000
  Mo  Mo9       1.0  0.11500  0.99700  0.29500  1.0000
  Mo  Mo10      1.0  0.70500  0.88500  0.00312  1.0000
  Mo  Mo11      1.0  0.00312  0.70500  0.88500  1.0000
  Mo  Mo12      1.0  0.88500  0.00312  0.70500  1.0000
  Te  Te1       1.0  0.57400  0.20600  0.82900  1.0000
  Te  Te2       1.0  0.82900  0.57400  0.20600  1.0000
  Te  Te3       1.0  0.20600  0.82900  0.57400  1.0000
  Te  Te4       1.0  0.42600  0.79400  0.17100  1.0000
  Te  Te5       1.0  0.17100  0.42600  0.79400  1.0000
  Te  Te6       1.0  0.79400  0.17100  0.42600  1.0000
  Te  Te7       1.0  0.37800  0.01210  0.75000  1.0000
  Te  Te8       1.0  0.75000  0.37800  0.01210  1.0000
  Te  Te9       1.0  0.01210  0.75000  0.37800  1.0000
  Te  Te10      1.0  0.62200  0.98800  0.25000  1.0000
  Te  Te11      1.0  0.25000  0.62200  0.98800  1.0000
  Te  Te12      1.0  0.98800  0.25000  0.62200  1.0000
  Te  Te13      1.0  0.22400  0.22400  0.22400  1.0000
  Te  Te14      1.0  0.77600  0.77600  0.77600  1.0000
