data_image0
_chemical_formula_structural       Cl20Mo4S8Se4
_chemical_formula_sum              "Cl20 Mo4 S8 Se4"
_cell_length_a       9.2996
_cell_length_b       9.5461
_cell_length_c       12.5298
_cell_angle_alpha    68.6685
_cell_angle_beta     68.1519
_cell_angle_gamma    60.7961

_space_group_name_H-M_alt    "P 1"
_space_group_IT_number       1

loop_
  _space_group_symop_operation_xyz
  'x, y, z'

loop_
  _atom_site_type_symbol
  _atom_site_label
  _atom_site_symmetry_multiplicity
  _atom_site_fract_x
  _atom_site_fract_y
  _atom_site_fract_z
  _atom_site_occupancy
  Cl  Cl1       1.0  0.55100  0.98700  0.77500  1.0000
  Cl  Cl2       1.0  0.44900  0.01300  0.22500  1.0000
  Cl  Cl3       1.0  0.04350  0.45300  0.63600  1.0000
  Cl  Cl4       1.0  0.95600  0.54700  0.36400  1.0000
  Cl  Cl5       1.0  0.85400  0.48100  0.90900  1.0000
  Cl  Cl6       1.0  0.14600  0.51900  0.09070  1.0000
  Cl  Cl7       1.0  0.61500  0.66000  0.57300  1.0000
  Cl  Cl8       1.0  0.38500  0.34000  0.42700  1.0000
  Cl  Cl9       1.0  0.84700  0.84000  0.92800  1.0000
  Cl  Cl10      1.0  0.15300  0.16000  0.07250  1.0000
  Cl  Cl11      1.0  0.13400  0.04520  0.86400  1.0000
  Cl  Cl12      1.0  0.86600  0.95500  0.13600  1.0000
  Cl  Cl13      1.0  0.24500  0.01820  0.59100  1.0000
  Cl  Cl14      1.0  0.75500  0.98200  0.40900  1.0000
  Cl  Cl15      1.0  0.94700  0.87300  0.64200  1.0000
  Cl  Cl16      1.0  0.05280  0.12700  0.35800  1.0000
  Cl  Cl17      1.0  0.46200  0.62700  0.85700  1.0000
  Cl  Cl18      1.0  0.53800  0.37300  0.14300  1.0000
  Cl  Cl19      1.0  0.31300  0.51300  0.72600  1.0000
  Cl  Cl20      1.0  0.68700  0.48700  0.27400  1.0000
  Mo  Mo1       1.0  0.59900  0.42100  0.73700  1.0000
  Mo  Mo2       1.0  0.40100  0.57900  0.26300  1.0000
  Mo  Mo3       1.0  0.75700  0.07900  0.76300  1.0000
  Mo  Mo4       1.0  0.24300  0.92100  0.23700  1.0000
  S   S1        1.0  0.86000  0.27400  0.60800  1.0000
  S   S2        1.0  0.14000  0.72600  0.39200  1.0000
  S   S3        1.0  0.74100  0.22600  0.89300  1.0000
  S   S4        1.0  0.25900  0.77400  0.10700  1.0000
  S   S5        1.0  0.65000  0.27800  0.59200  1.0000
  S   S6        1.0  0.35000  0.72200  0.40800  1.0000
  S   S7        1.0  0.51900  0.22200  0.90800  1.0000
  S   S8        1.0  0.48100  0.77800  0.09180  1.0000
  Se  Se1       1.0  0.77700  0.57100  0.73900  1.0000
  Se  Se2       1.0  0.22300  0.42900  0.26100  1.0000
  Se  Se3       1.0  0.08730  0.92800  0.76100  1.0000
  Se  Se4       1.0  0.91300  0.07190  0.23900  1.0000
