data_image0
_chemical_formula_structural       Cl20S8Se4W4
_chemical_formula_sum              "Cl20 S8 Se4 W4"
_cell_length_a       9.23563
_cell_length_b       9.55968
_cell_length_c       12.6077
_cell_angle_alpha    69.6425
_cell_angle_beta     68.4248
_cell_angle_gamma    61.0457

_space_group_name_H-M_alt    "P 1"
_space_group_IT_number       1

loop_
  _space_group_symop_operation_xyz
  'x, y, z'

loop_
  _atom_site_type_symbol
  _atom_site_label
  _atom_site_symmetry_multiplicity
  _atom_site_fract_x
  _atom_site_fract_y
  _atom_site_fract_z
  _atom_site_occupancy
  Cl  Cl1       1.0  0.55800  0.98400  0.77000  1.0000
  Cl  Cl2       1.0  0.44200  0.01570  0.23000  1.0000
  Cl  Cl3       1.0  0.86400  0.47600  0.90800  1.0000
  Cl  Cl4       1.0  0.13600  0.52400  0.09190  1.0000
  Cl  Cl5       1.0  0.04700  0.45200  0.63500  1.0000
  Cl  Cl6       1.0  0.95300  0.54800  0.36500  1.0000
  Cl  Cl7       1.0  0.61100  0.65700  0.58000  1.0000
  Cl  Cl8       1.0  0.38900  0.34300  0.42000  1.0000
  Cl  Cl9       1.0  0.84900  0.84400  0.92000  1.0000
  Cl  Cl10      1.0  0.15100  0.15600  0.08010  1.0000
  Cl  Cl11      1.0  0.13500  0.04820  0.86400  1.0000
  Cl  Cl12      1.0  0.86500  0.95200  0.13600  1.0000
  Cl  Cl13      1.0  0.24800  0.02620  0.59100  1.0000
  Cl  Cl14      1.0  0.75200  0.97400  0.40900  1.0000
  Cl  Cl15      1.0  0.95100  0.87800  0.63800  1.0000
  Cl  Cl16      1.0  0.04940  0.12200  0.36200  1.0000
  Cl  Cl17      1.0  0.46500  0.62200  0.86200  1.0000
  Cl  Cl18      1.0  0.53500  0.37800  0.13800  1.0000
  Cl  Cl19      1.0  0.31100  0.51600  0.73000  1.0000
  Cl  Cl20      1.0  0.68900  0.48400  0.27000  1.0000
  S   S1        1.0  0.86000  0.27500  0.60700  1.0000
  S   S2        1.0  0.14000  0.72500  0.39300  1.0000
  S   S3        1.0  0.51800  0.22200  0.90700  1.0000
  S   S4        1.0  0.48200  0.77800  0.09250  1.0000
  S   S5        1.0  0.74300  0.22500  0.89300  1.0000
  S   S6        1.0  0.25700  0.77500  0.10700  1.0000
  S   S7        1.0  0.64800  0.27800  0.59300  1.0000
  S   S8        1.0  0.35200  0.72200  0.40700  1.0000
  Se  Se1       1.0  0.78200  0.56800  0.74200  1.0000
  Se  Se2       1.0  0.21800  0.43200  0.25800  1.0000
  Se  Se3       1.0  0.09260  0.93300  0.75800  1.0000
  Se  Se4       1.0  0.90700  0.06650  0.24200  1.0000
  W   W1        1.0  0.59900  0.42000  0.73900  1.0000
  W   W2        1.0  0.40100  0.58000  0.26100  1.0000
  W   W3        1.0  0.75800  0.08050  0.76100  1.0000
  W   W4        1.0  0.24200  0.92000  0.23900  1.0000
