data_image0
_chemical_formula_structural       Er2Fe2Ge4
_chemical_formula_sum              "Er2 Fe2 Ge4"
_cell_length_a       4.16265
_cell_length_b       4.11805
_cell_length_c       8.57599
_cell_angle_alpha    76.1081
_cell_angle_beta     90
_cell_angle_gamma    90

_space_group_name_H-M_alt    "P 1"
_space_group_IT_number       1

loop_
  _space_group_symop_operation_xyz
  'x, y, z'

loop_
  _atom_site_type_symbol
  _atom_site_label
  _atom_site_symmetry_multiplicity
  _atom_site_fract_x
  _atom_site_fract_y
  _atom_site_fract_z
  _atom_site_occupancy
  Er  Er1       1.0  0.25000  0.89000  0.21900  1.0000
  Er  Er2       1.0  0.75000  0.11000  0.78100  1.0000
  Fe  Fe1       1.0  0.75000  0.32000  0.36000  1.0000
  Fe  Fe2       1.0  0.25000  0.68000  0.64000  1.0000
  Ge  Ge1       1.0  0.75000  0.45500  0.08970  1.0000
  Ge  Ge2       1.0  0.25000  0.25100  0.49900  1.0000
  Ge  Ge3       1.0  0.75000  0.74900  0.50100  1.0000
  Ge  Ge4       1.0  0.25000  0.54500  0.91000  1.0000
