data_image0
_chemical_formula_structural       Ag2Au4F16
_chemical_formula_sum              "Ag2 Au4 F16"
_cell_length_a       4.74403
_cell_length_b       10.3199
_cell_length_c       5.1948
_cell_angle_alpha    90
_cell_angle_beta     94.5838
_cell_angle_gamma    90

_space_group_name_H-M_alt    "P 1"
_space_group_IT_number       1

loop_
  _space_group_symop_operation_xyz
  'x, y, z'

loop_
  _atom_site_type_symbol
  _atom_site_label
  _atom_site_symmetry_multiplicity
  _atom_site_fract_x
  _atom_site_fract_y
  _atom_site_fract_z
  _atom_site_occupancy
  Ag  Ag1       1.0  0.00000  0.50000  0.50000  1.0000
  Ag  Ag2       1.0  0.50000  0.00000  0.00000  1.0000
  Au  Au1       1.0  0.19000  0.17900  0.43900  1.0000
  Au  Au2       1.0  0.31000  0.67900  0.06140  1.0000
  Au  Au3       1.0  0.81000  0.82100  0.56100  1.0000
  Au  Au4       1.0  0.69000  0.32100  0.93900  1.0000
  F   F1        1.0  0.13900  0.09310  0.10100  1.0000
  F   F2        1.0  0.36100  0.59300  0.39900  1.0000
  F   F3        1.0  0.86100  0.90700  0.89900  1.0000
  F   F4        1.0  0.63900  0.40700  0.60100  1.0000
  F   F5        1.0  0.24000  0.01270  0.61600  1.0000
  F   F6        1.0  0.26000  0.51300  0.88400  1.0000
  F   F7        1.0  0.76000  0.98700  0.38400  1.0000
  F   F8        1.0  0.74000  0.48700  0.11600  1.0000
  F   F9        1.0  0.18600  0.34400  0.25100  1.0000
  F   F10       1.0  0.31400  0.84400  0.24900  1.0000
  F   F11       1.0  0.81400  0.65600  0.74900  1.0000
  F   F12       1.0  0.68600  0.15600  0.75100  1.0000
  F   F13       1.0  0.18500  0.27900  0.75500  1.0000
  F   F14       1.0  0.31500  0.77900  0.74500  1.0000
  F   F15       1.0  0.81500  0.72100  0.24500  1.0000
  F   F16       1.0  0.68500  0.22100  0.25500  1.0000
