data_image0
_chemical_formula_structural       Br8Hg8Pb4S8
_chemical_formula_sum              "Br8 Hg8 Pb4 S8"
_cell_length_a       10.054
_cell_length_b       8.15665
_cell_length_c       10.0494
_cell_angle_alpha    90
_cell_angle_beta     106.018
_cell_angle_gamma    90

_space_group_name_H-M_alt    "P 1"
_space_group_IT_number       1

loop_
  _space_group_symop_operation_xyz
  'x, y, z'

loop_
  _atom_site_type_symbol
  _atom_site_label
  _atom_site_symmetry_multiplicity
  _atom_site_fract_x
  _atom_site_fract_y
  _atom_site_fract_z
  _atom_site_occupancy
  Br  Br1       1.0  0.10500  0.25800  0.07300  1.0000
  Br  Br2       1.0  0.39500  0.75800  0.42700  1.0000
  Br  Br3       1.0  0.89500  0.74200  0.92700  1.0000
  Br  Br4       1.0  0.60500  0.24200  0.57300  1.0000
  Br  Br5       1.0  0.83700  0.04280  0.17700  1.0000
  Br  Br6       1.0  0.66300  0.54300  0.32300  1.0000
  Br  Br7       1.0  0.16300  0.95700  0.82300  1.0000
  Br  Br8       1.0  0.33700  0.45700  0.67700  1.0000
  Hg  Hg1       1.0  0.54700  0.24000  0.05310  1.0000
  Hg  Hg2       1.0  0.95300  0.74000  0.44700  1.0000
  Hg  Hg3       1.0  0.45300  0.76000  0.94700  1.0000
  Hg  Hg4       1.0  0.04740  0.26000  0.55300  1.0000
  Hg  Hg5       1.0  0.35700  0.01990  0.64500  1.0000
  Hg  Hg6       1.0  0.14300  0.52000  0.85500  1.0000
  Hg  Hg7       1.0  0.64300  0.98000  0.35500  1.0000
  Hg  Hg8       1.0  0.85700  0.48000  0.14500  1.0000
  Pb  Pb1       1.0  0.84500  0.14900  0.85700  1.0000
  Pb  Pb2       1.0  0.65500  0.64900  0.64300  1.0000
  Pb  Pb3       1.0  0.15500  0.85100  0.14300  1.0000
  Pb  Pb4       1.0  0.34500  0.35100  0.35700  1.0000
  S   S1        1.0  0.17800  0.09590  0.43800  1.0000
  S   S2        1.0  0.32200  0.59600  0.06230  1.0000
  S   S3        1.0  0.82200  0.90400  0.56200  1.0000
  S   S4        1.0  0.67800  0.40400  0.93800  1.0000
  S   S5        1.0  0.56500  0.91900  0.81100  1.0000
  S   S6        1.0  0.93500  0.41900  0.68900  1.0000
  S   S7        1.0  0.43500  0.08100  0.18900  1.0000
  S   S8        1.0  0.06470  0.58100  0.31100  1.0000
