data_image0
_chemical_formula_structural       Co12N4W12
_chemical_formula_sum              "Co12 N4 W12"
_cell_length_a       7.78933
_cell_length_b       7.78933
_cell_length_c       7.78933
_cell_angle_alpha    60
_cell_angle_beta     60
_cell_angle_gamma    60

_space_group_name_H-M_alt    "P 1"
_space_group_IT_number       1

loop_
  _space_group_symop_operation_xyz
  'x, y, z'

loop_
  _atom_site_type_symbol
  _atom_site_label
  _atom_site_symmetry_multiplicity
  _atom_site_fract_x
  _atom_site_fract_y
  _atom_site_fract_z
  _atom_site_occupancy
  Co  Co1       1.0  0.41500  0.41500  0.41500  1.0000
  Co  Co2       1.0  0.41500  0.41500  0.75500  1.0000
  Co  Co3       1.0  0.75500  0.41500  0.41500  1.0000
  Co  Co4       1.0  0.41500  0.75500  0.41500  1.0000
  Co  Co5       1.0  0.83500  0.83500  0.83500  1.0000
  Co  Co6       1.0  0.83500  0.83500  0.49500  1.0000
  Co  Co7       1.0  0.83500  0.49500  0.83500  1.0000
  Co  Co8       1.0  0.49500  0.83500  0.83500  1.0000
  Co  Co9       1.0  0.62500  0.62500  0.62500  1.0000
  Co  Co10      1.0  0.62500  0.62500  0.12500  1.0000
  Co  Co11      1.0  0.12500  0.62500  0.62500  1.0000
  Co  Co12      1.0  0.62500  0.12500  0.62500  1.0000
  N   N1        1.0  0.12500  0.12500  0.12500  1.0000
  N   N2        1.0  0.12500  0.12500  0.62500  1.0000
  N   N3        1.0  0.62500  0.12500  0.12500  1.0000
  N   N4        1.0  0.12500  0.62500  0.12500  1.0000
  W   W1        1.0  0.79400  0.20600  0.20600  1.0000
  W   W2        1.0  0.20600  0.79400  0.79400  1.0000
  W   W3        1.0  0.20600  0.79400  0.20600  1.0000
  W   W4        1.0  0.20600  0.20600  0.79400  1.0000
  W   W5        1.0  0.79400  0.20600  0.79400  1.0000
  W   W6        1.0  0.79400  0.79400  0.20600  1.0000
  W   W7        1.0  0.04360  0.45600  0.04360  1.0000
  W   W8        1.0  0.45600  0.04360  0.45600  1.0000
  W   W9        1.0  0.45600  0.04360  0.04360  1.0000
  W   W10       1.0  0.04360  0.04360  0.45600  1.0000
  W   W11       1.0  0.04360  0.45600  0.45600  1.0000
  W   W12       1.0  0.45600  0.45600  0.04360  1.0000
