data_image0
_chemical_formula_structural       Ce6I2S16Si4
_chemical_formula_sum              "Ce6 I2 S16 Si4"
_cell_length_a       8.98783
_cell_length_b       8.98783
_cell_length_c       10.9817
_cell_angle_alpha    82.7201
_cell_angle_beta     97.2799
_cell_angle_gamma    127.632

_space_group_name_H-M_alt    "P 1"
_space_group_IT_number       1

loop_
  _space_group_symop_operation_xyz
  'x, y, z'

loop_
  _atom_site_type_symbol
  _atom_site_label
  _atom_site_symmetry_multiplicity
  _atom_site_fract_x
  _atom_site_fract_y
  _atom_site_fract_z
  _atom_site_occupancy
  Ce  Ce1       1.0  0.59800  0.59800  0.75000  1.0000
  Ce  Ce2       1.0  0.40200  0.40200  0.25000  1.0000
  Ce  Ce3       1.0  0.32000  0.92300  0.68100  1.0000
  Ce  Ce4       1.0  0.92300  0.32000  0.81900  1.0000
  Ce  Ce5       1.0  0.68000  0.07680  0.31900  1.0000
  Ce  Ce6       1.0  0.07680  0.68000  0.18100  1.0000
  I   I1        1.0  0.98000  0.98000  0.25000  1.0000
  I   I2        1.0  0.02000  0.01990  0.75000  1.0000
  S   S1        1.0  0.85100  0.28700  0.08510  1.0000
  S   S2        1.0  0.28700  0.85100  0.41500  1.0000
  S   S3        1.0  0.14900  0.71300  0.91500  1.0000
  S   S4        1.0  0.71300  0.14900  0.58500  1.0000
  S   S5        1.0  0.40200  0.11100  0.14700  1.0000
  S   S6        1.0  0.11100  0.40200  0.35300  1.0000
  S   S7        1.0  0.59800  0.88900  0.85300  1.0000
  S   S8        1.0  0.88900  0.59800  0.64700  1.0000
  S   S9        1.0  0.55000  0.25000  0.84000  1.0000
  S   S10       1.0  0.25000  0.55000  0.66000  1.0000
  S   S11       1.0  0.45000  0.75000  0.16000  1.0000
  S   S12       1.0  0.75000  0.45000  0.34000  1.0000
  S   S13       1.0  0.72200  0.58400  0.04270  1.0000
  S   S14       1.0  0.58400  0.72200  0.45700  1.0000
  S   S15       1.0  0.27800  0.41600  0.95700  1.0000
  S   S16       1.0  0.41600  0.27800  0.54300  1.0000
  Si  Si1       1.0  0.62300  0.30300  0.02980  1.0000
  Si  Si2       1.0  0.30300  0.62300  0.47000  1.0000
  Si  Si3       1.0  0.37700  0.69700  0.97000  1.0000
  Si  Si4       1.0  0.69700  0.37700  0.53000  1.0000
