data_image0
_chemical_formula_structural       Co6La6O16
_chemical_formula_sum              "Co6 La6 O16"
_cell_length_a       5.55395
_cell_length_b       5.31651
_cell_length_c       11.7739
_cell_angle_alpha    90
_cell_angle_beta     90.0513
_cell_angle_gamma    90

_space_group_name_H-M_alt    "P 1"
_space_group_IT_number       1

loop_
  _space_group_symop_operation_xyz
  'x, y, z'

loop_
  _atom_site_type_symbol
  _atom_site_label
  _atom_site_symmetry_multiplicity
  _atom_site_fract_x
  _atom_site_fract_y
  _atom_site_fract_z
  _atom_site_occupancy
  Co  Co1       1.0  0.18800  0.20300  0.00011  1.0000
  Co  Co2       1.0  0.81200  0.70300  0.00000  1.0000
  Co  Co3       1.0  0.24900  0.25000  0.66700  1.0000
  Co  Co4       1.0  0.75100  0.75000  0.33300  1.0000
  Co  Co5       1.0  0.24500  0.25000  0.33300  1.0000
  Co  Co6       1.0  0.75500  0.75000  0.66700  1.0000
  La  La1       1.0  0.73600  0.24600  0.81100  1.0000
  La  La2       1.0  0.26400  0.74600  0.18900  1.0000
  La  La3       1.0  0.73100  0.24500  0.18800  1.0000
  La  La4       1.0  0.26900  0.74500  0.81200  1.0000
  La  La5       1.0  0.75100  0.25000  0.49900  1.0000
  La  La6       1.0  0.24900  0.75000  0.50100  1.0000
  O   O1        1.0  0.31200  0.26600  0.15000  1.0000
  O   O2        1.0  0.68800  0.76600  0.85000  1.0000
  O   O3        1.0  0.14700  0.82400  1.00000  1.0000
  O   O4        1.0  0.85300  0.32400  0.00013  1.0000
  O   O5        1.0  0.99500  0.49900  0.30800  1.0000
  O   O6        1.0  0.00538  0.99900  0.69200  1.0000
  O   O7        1.0  0.99800  0.99800  0.30800  1.0000
  O   O8        1.0  0.00159  0.49800  0.69200  1.0000
  O   O9        1.0  0.17500  0.25000  0.49900  1.0000
  O   O10       1.0  0.82500  0.75000  0.50100  1.0000
  O   O11       1.0  0.50100  0.49900  0.35300  1.0000
  O   O12       1.0  0.49900  0.99900  0.64700  1.0000
  O   O13       1.0  0.49800  0.99700  0.35400  1.0000
  O   O14       1.0  0.50200  0.49700  0.64600  1.0000
  O   O15       1.0  0.31800  0.26800  0.85100  1.0000
  O   O16       1.0  0.68200  0.76800  0.14900  1.0000
