data_image0
_chemical_formula_structural       Pb4Y2
_chemical_formula_sum              "Pb4 Y2"
_cell_length_a       4.51968
_cell_length_b       4.5722
_cell_length_c       8.67547
_cell_angle_alpha    74.7214
_cell_angle_beta     90
_cell_angle_gamma    90

_space_group_name_H-M_alt    "P 1"
_space_group_IT_number       1

loop_
  _space_group_symop_operation_xyz
  'x, y, z'

loop_
  _atom_site_type_symbol
  _atom_site_label
  _atom_site_symmetry_multiplicity
  _atom_site_fract_x
  _atom_site_fract_y
  _atom_site_fract_z
  _atom_site_occupancy
  Pb  Pb1       1.0  0.75000  0.43200  0.13600  1.0000
  Pb  Pb2       1.0  0.25000  0.25000  0.49900  1.0000
  Pb  Pb3       1.0  0.75000  0.75000  0.50100  1.0000
  Pb  Pb4       1.0  0.25000  0.56800  0.86400  1.0000
  Y   Y1        1.0  0.25000  0.90400  0.19100  1.0000
  Y   Y2        1.0  0.75000  0.09560  0.80900  1.0000
