data_image0
_chemical_formula_structural       Ag2Gd2Pb2
_chemical_formula_sum              "Ag2 Gd2 Pb2"
_cell_length_a       4.85225
_cell_length_b       4.85125
_cell_length_c       7.6409
_cell_angle_alpha    90
_cell_angle_beta     90
_cell_angle_gamma    120.007

_space_group_name_H-M_alt    "P 1"
_space_group_IT_number       1

loop_
  _space_group_symop_operation_xyz
  'x, y, z'

loop_
  _atom_site_type_symbol
  _atom_site_label
  _atom_site_symmetry_multiplicity
  _atom_site_fract_x
  _atom_site_fract_y
  _atom_site_fract_z
  _atom_site_occupancy
  Ag  Ag1       1.0  0.66700  0.33300  0.34700  1.0000
  Ag  Ag2       1.0  0.33300  0.66700  0.84700  1.0000
  Gd  Gd1       1.0  0.00000  0.00000  0.02710  1.0000
  Gd  Gd2       1.0  0.00001  0.00003  0.52700  1.0000
  Pb  Pb1       1.0  0.33300  0.66700  0.24600  1.0000
  Pb  Pb2       1.0  0.66700  0.33300  0.74600  1.0000
