data_image0
_chemical_formula_structural       Ca16O40Ti12
_chemical_formula_sum              "Ca16 O40 Ti12"
_cell_length_a       5.34525
_cell_length_b       26.8412
_cell_length_c       5.42756
_cell_angle_alpha    90
_cell_angle_beta     90
_cell_angle_gamma    90

_space_group_name_H-M_alt    "P 1"
_space_group_IT_number       1

loop_
  _space_group_symop_operation_xyz
  'x, y, z'

loop_
  _atom_site_type_symbol
  _atom_site_label
  _atom_site_symmetry_multiplicity
  _atom_site_fract_x
  _atom_site_fract_y
  _atom_site_fract_z
  _atom_site_occupancy
  Ca  Ca1       1.0  0.99400  0.20600  0.04460  1.0000
  Ca  Ca2       1.0  0.00606  0.29400  0.54500  1.0000
  Ca  Ca3       1.0  0.50600  0.70600  0.95500  1.0000
  Ca  Ca4       1.0  0.49400  0.79400  0.45500  1.0000
  Ca  Ca5       1.0  0.00606  0.79400  0.95500  1.0000
  Ca  Ca6       1.0  0.99400  0.70600  0.45500  1.0000
  Ca  Ca7       1.0  0.49400  0.29400  0.04460  1.0000
  Ca  Ca8       1.0  0.50600  0.20600  0.54500  1.0000
  Ca  Ca9       1.0  0.50800  0.07000  0.45300  1.0000
  Ca  Ca10      1.0  0.49200  0.43000  0.95300  1.0000
  Ca  Ca11      1.0  0.99200  0.57000  0.54700  1.0000
  Ca  Ca12      1.0  0.00758  0.93000  0.04720  1.0000
  Ca  Ca13      1.0  0.49200  0.93000  0.54700  1.0000
  Ca  Ca14      1.0  0.50800  0.57000  0.04720  1.0000
  Ca  Ca15      1.0  0.00758  0.43000  0.45300  1.0000
  Ca  Ca16      1.0  0.99200  0.07000  0.95300  1.0000
  O   O1        1.0  0.20300  0.98800  0.79600  1.0000
  O   O2        1.0  0.79700  0.51200  0.29600  1.0000
  O   O3        1.0  0.29700  0.48800  0.20400  1.0000
  O   O4        1.0  0.70300  0.01190  0.70400  1.0000
  O   O5        1.0  0.79700  0.01190  0.20400  1.0000
  O   O6        1.0  0.20300  0.48800  0.70400  1.0000
  O   O7        1.0  0.70300  0.51200  0.79600  1.0000
  O   O8        1.0  0.29700  0.98800  0.29600  1.0000
  O   O9        1.0  0.29300  0.15300  0.29100  1.0000
  O   O10       1.0  0.70700  0.34700  0.79100  1.0000
  O   O11       1.0  0.20700  0.65300  0.70900  1.0000
  O   O12       1.0  0.79300  0.84700  0.20900  1.0000
  O   O13       1.0  0.70700  0.84700  0.70900  1.0000
  O   O14       1.0  0.29300  0.65300  0.20900  1.0000
  O   O15       1.0  0.79300  0.34700  0.29100  1.0000
  O   O16       1.0  0.20700  0.15300  0.79100  1.0000
  O   O17       1.0  0.70600  0.13000  0.70500  1.0000
  O   O18       1.0  0.29400  0.37000  0.20500  1.0000
  O   O19       1.0  0.79400  0.63000  0.29500  1.0000
  O   O20       1.0  0.20600  0.87000  0.79500  1.0000
  O   O21       1.0  0.29400  0.87000  0.29500  1.0000
  O   O22       1.0  0.70600  0.63000  0.79500  1.0000
  O   O23       1.0  0.20600  0.37000  0.70500  1.0000
  O   O24       1.0  0.79400  0.13000  0.20500  1.0000
  O   O25       1.0  0.57000  0.21300  0.97800  1.0000
  O   O26       1.0  0.43000  0.28700  0.47800  1.0000
  O   O27       1.0  0.93000  0.71300  0.02170  1.0000
  O   O28       1.0  0.06990  0.78700  0.52200  1.0000
  O   O29       1.0  0.43000  0.78700  0.02170  1.0000
  O   O30       1.0  0.57000  0.71300  0.52200  1.0000
  O   O31       1.0  0.06990  0.28700  0.97800  1.0000
  O   O32       1.0  0.93000  0.21300  0.47800  1.0000
  O   O33       1.0  0.41900  0.07070  0.01950  1.0000
  O   O34       1.0  0.58100  0.42900  0.51900  1.0000
  O   O35       1.0  0.08090  0.57100  0.98100  1.0000
  O   O36       1.0  0.91900  0.92900  0.48100  1.0000
  O   O37       1.0  0.58100  0.92900  0.98100  1.0000
  O   O38       1.0  0.41900  0.57100  0.48100  1.0000
  O   O39       1.0  0.91900  0.42900  0.01950  1.0000
  O   O40       1.0  0.08090  0.07070  0.51900  1.0000
  Ti  Ti1       1.0  0.00000  0.00000  0.50000  1.0000
  Ti  Ti2       1.0  0.00000  0.50000  0.00000  1.0000
  Ti  Ti3       1.0  0.50000  0.50000  0.50000  1.0000
  Ti  Ti4       1.0  0.50000  0.00000  0.00000  1.0000
  Ti  Ti5       1.0  0.50000  0.14200  0.00449  1.0000
  Ti  Ti6       1.0  0.50000  0.35800  0.50400  1.0000
  Ti  Ti7       1.0  0.00000  0.64200  0.99600  1.0000
  Ti  Ti8       1.0  0.00034  0.85800  0.49600  1.0000
  Ti  Ti9       1.0  0.50000  0.85800  0.99600  1.0000
  Ti  Ti10      1.0  0.50000  0.64200  0.49600  1.0000
  Ti  Ti11      1.0  0.00034  0.35800  0.00449  1.0000
  Ti  Ti12      1.0  0.00000  0.14200  0.50400  1.0000
