data_image0
_chemical_formula_structural       Mn8Sc8Si14
_chemical_formula_sum              "Mn8 Sc8 Si14"
_cell_length_a       10.6634
_cell_length_b       10.6634
_cell_length_c       10.6634
_cell_angle_alpha    93.4142
_cell_angle_beta     93.4142
_cell_angle_gamma    151.75

_space_group_name_H-M_alt    "P 1"
_space_group_IT_number       1

loop_
  _space_group_symop_operation_xyz
  'x, y, z'

loop_
  _atom_site_type_symbol
  _atom_site_label
  _atom_site_symmetry_multiplicity
  _atom_site_fract_x
  _atom_site_fract_y
  _atom_site_fract_z
  _atom_site_occupancy
  Mn  Mn1       1.0  0.89900  0.39900  0.79700  1.0000
  Mn  Mn2       1.0  0.60100  0.10100  0.20300  1.0000
  Mn  Mn3       1.0  0.10100  0.89900  0.50000  1.0000
  Mn  Mn4       1.0  0.39900  0.60100  0.50000  1.0000
  Mn  Mn5       1.0  0.10100  0.60100  0.20300  1.0000
  Mn  Mn6       1.0  0.39900  0.89900  0.79700  1.0000
  Mn  Mn7       1.0  0.89900  0.10100  0.50000  1.0000
  Mn  Mn8       1.0  0.60100  0.39900  0.50000  1.0000
  Sc  Sc1       1.0  0.15000  0.15000  0.30000  1.0000
  Sc  Sc2       1.0  0.85000  0.85000  0.70000  1.0000
  Sc  Sc3       1.0  0.85000  0.15000  0.00000  1.0000
  Sc  Sc4       1.0  0.15000  0.85000  0.00000  1.0000
  Sc  Sc5       1.0  0.50000  0.63400  0.13400  1.0000
  Sc  Sc6       1.0  0.50000  0.36600  0.86600  1.0000
  Sc  Sc7       1.0  0.36600  0.50000  0.86600  1.0000
  Sc  Sc8       1.0  0.63400  0.50000  0.13400  1.0000
  Si  Si1       1.0  0.29300  0.29300  0.58600  1.0000
  Si  Si2       1.0  0.70700  0.70700  0.41400  1.0000
  Si  Si3       1.0  0.70700  0.29300  0.00000  1.0000
  Si  Si4       1.0  0.29300  0.70700  0.00000  1.0000
  Si  Si5       1.0  0.50000  0.21000  0.71000  1.0000
  Si  Si6       1.0  0.50000  0.79000  0.29000  1.0000
  Si  Si7       1.0  0.79000  0.50000  0.29000  1.0000
  Si  Si8       1.0  0.21000  0.50000  0.71000  1.0000
  Si  Si9       1.0  0.50000  0.92900  0.42900  1.0000
  Si  Si10      1.0  0.50000  0.07060  0.57100  1.0000
  Si  Si11      1.0  0.07060  0.50000  0.57100  1.0000
  Si  Si12      1.0  0.92900  0.50000  0.42900  1.0000
  Si  Si13      1.0  0.20100  0.20100  0.00000  1.0000
  Si  Si14      1.0  0.79900  0.79900  0.00000  1.0000
