data_image0
_chemical_formula_structural       C120K2
_chemical_formula_sum              "C120 K2"
_cell_length_a       13.9688
_cell_length_b       9.76445
_cell_length_c       9.08247
_cell_angle_alpha    90
_cell_angle_beta     90
_cell_angle_gamma    90

_space_group_name_H-M_alt    "P 1"
_space_group_IT_number       1

loop_
  _space_group_symop_operation_xyz
  'x, y, z'

loop_
  _atom_site_type_symbol
  _atom_site_label
  _atom_site_symmetry_multiplicity
  _atom_site_fract_x
  _atom_site_fract_y
  _atom_site_fract_z
  _atom_site_occupancy
  C   C1        1.0  0.15800  0.90700  0.28700  1.0000
  C   C2        1.0  0.84200  0.09320  0.28700  1.0000
  C   C3        1.0  0.65800  0.59300  0.21300  1.0000
  C   C4        1.0  0.34200  0.40700  0.21300  1.0000
  C   C5        1.0  0.84200  0.09320  0.71300  1.0000
  C   C6        1.0  0.15800  0.90700  0.71300  1.0000
  C   C7        1.0  0.34200  0.40700  0.78700  1.0000
  C   C8        1.0  0.65800  0.59300  0.78700  1.0000
  C   C9        1.0  0.21700  0.89400  0.15700  1.0000
  C   C10       1.0  0.78300  0.10600  0.15700  1.0000
  C   C11       1.0  0.71700  0.60600  0.34300  1.0000
  C   C12       1.0  0.28300  0.39400  0.34300  1.0000
  C   C13       1.0  0.78300  0.10600  0.84300  1.0000
  C   C14       1.0  0.21700  0.89400  0.84300  1.0000
  C   C15       1.0  0.28300  0.39400  0.65700  1.0000
  C   C16       1.0  0.71700  0.60600  0.65700  1.0000
  C   C17       1.0  0.96600  0.35100  0.07950  1.0000
  C   C18       1.0  0.03410  0.64900  0.07950  1.0000
  C   C19       1.0  0.46600  0.14900  0.42000  1.0000
  C   C20       1.0  0.53400  0.85100  0.42000  1.0000
  C   C21       1.0  0.03410  0.64900  0.92000  1.0000
  C   C22       1.0  0.96600  0.35100  0.92000  1.0000
  C   C23       1.0  0.53400  0.85100  0.58000  1.0000
  C   C24       1.0  0.46600  0.14900  0.58000  1.0000
  C   C25       1.0  0.15900  0.15400  0.25300  1.0000
  C   C26       1.0  0.84100  0.84600  0.25300  1.0000
  C   C27       1.0  0.65900  0.34600  0.24700  1.0000
  C   C28       1.0  0.34100  0.65400  0.24700  1.0000
  C   C29       1.0  0.84100  0.84600  0.74700  1.0000
  C   C30       1.0  0.15900  0.15400  0.74700  1.0000
  C   C31       1.0  0.34100  0.65400  0.75300  1.0000
  C   C32       1.0  0.65900  0.34600  0.75300  1.0000
  C   C33       1.0  0.06290  0.33200  0.12900  1.0000
  C   C34       1.0  0.93700  0.66800  0.12900  1.0000
  C   C35       1.0  0.56300  0.16800  0.37100  1.0000
  C   C36       1.0  0.43700  0.83200  0.37100  1.0000
  C   C37       1.0  0.93700  0.66800  0.87100  1.0000
  C   C38       1.0  0.06290  0.33200  0.87100  1.0000
  C   C39       1.0  0.43700  0.83200  0.62900  1.0000
  C   C40       1.0  0.56300  0.16800  0.62900  1.0000
  C   C41       1.0  0.08000  0.25000  0.25300  1.0000
  C   C42       1.0  0.92000  0.75000  0.25300  1.0000
  C   C43       1.0  0.58000  0.25000  0.24700  1.0000
  C   C44       1.0  0.42000  0.75000  0.24700  1.0000
  C   C45       1.0  0.92000  0.75000  0.74700  1.0000
  C   C46       1.0  0.08000  0.25000  0.74700  1.0000
  C   C47       1.0  0.42000  0.75000  0.75300  1.0000
  C   C48       1.0  0.58000  0.25000  0.75300  1.0000
  C   C49       1.0  0.24800  0.00974  0.07990  1.0000
  C   C50       1.0  0.75200  0.99000  0.07990  1.0000
  C   C51       1.0  0.74800  0.49000  0.42000  1.0000
  C   C52       1.0  0.25200  0.51000  0.42000  1.0000
  C   C53       1.0  0.75200  0.99000  0.92000  1.0000
  C   C54       1.0  0.24800  0.00974  0.92000  1.0000
  C   C55       1.0  0.25200  0.51000  0.58000  1.0000
  C   C56       1.0  0.74800  0.49000  0.58000  1.0000
  C   C57       1.0  0.90900  0.20800  0.28700  1.0000
  C   C58       1.0  0.09060  0.79200  0.28700  1.0000
  C   C59       1.0  0.40900  0.29200  0.21300  1.0000
  C   C60       1.0  0.59100  0.70800  0.21300  1.0000
  C   C61       1.0  0.09060  0.79200  0.71300  1.0000
  C   C62       1.0  0.90900  0.20800  0.71300  1.0000
  C   C63       1.0  0.59100  0.70800  0.78700  1.0000
  C   C64       1.0  0.40900  0.29200  0.78700  1.0000
  C   C65       1.0  0.00290  0.19100  0.33600  1.0000
  C   C66       1.0  0.99700  0.80900  0.33600  1.0000
  C   C67       1.0  0.50300  0.30900  0.16400  1.0000
  C   C68       1.0  0.49700  0.69100  0.16400  1.0000
  C   C69       1.0  0.99700  0.80900  0.66400  1.0000
  C   C70       1.0  0.00290  0.19100  0.66400  1.0000
  C   C71       1.0  0.49700  0.69100  0.83600  1.0000
  C   C72       1.0  0.50300  0.30900  0.83600  1.0000
  C   C73       1.0  0.13100  0.03550  0.33500  1.0000
  C   C74       1.0  0.86900  0.96500  0.33500  1.0000
  C   C75       1.0  0.63100  0.46500  0.16500  1.0000
  C   C76       1.0  0.36900  0.53500  0.16500  1.0000
  C   C77       1.0  0.86900  0.96500  0.66500  1.0000
  C   C78       1.0  0.13100  0.03550  0.66500  1.0000
  C   C79       1.0  0.36900  0.53500  0.83500  1.0000
  C   C80       1.0  0.63100  0.46500  0.83500  1.0000
  C   C81       1.0  0.03690  0.06230  0.41300  1.0000
  C   C82       1.0  0.96300  0.93800  0.41300  1.0000
  C   C83       1.0  0.53700  0.43800  0.08720  1.0000
  C   C84       1.0  0.46300  0.56200  0.08720  1.0000
  C   C85       1.0  0.96300  0.93800  0.58700  1.0000
  C   C86       1.0  0.03690  0.06230  0.58700  1.0000
  C   C87       1.0  0.46300  0.56200  0.91300  1.0000
  C   C88       1.0  0.53700  0.43800  0.91300  1.0000
  C   C89       1.0  0.89100  0.28900  0.15700  1.0000
  C   C90       1.0  0.10900  0.71100  0.15700  1.0000
  C   C91       1.0  0.39100  0.21100  0.34300  1.0000
  C   C92       1.0  0.60900  0.78900  0.34300  1.0000
  C   C93       1.0  0.10900  0.71100  0.84300  1.0000
  C   C94       1.0  0.89100  0.28900  0.84300  1.0000
  C   C95       1.0  0.60900  0.78900  0.65700  1.0000
  C   C96       1.0  0.39100  0.21100  0.65700  1.0000
  C   C97       1.0  0.21800  0.14300  0.12800  1.0000
  C   C98       1.0  0.78200  0.85700  0.12800  1.0000
  C   C99       1.0  0.71800  0.35700  0.37200  1.0000
  C   C100      1.0  0.28200  0.64300  0.37200  1.0000
  C   C101      1.0  0.78200  0.85700  0.87200  1.0000
  C   C102      1.0  0.21800  0.14300  0.87200  1.0000
  C   C103      1.0  0.28200  0.64300  0.62800  1.0000
  C   C104      1.0  0.71800  0.35700  0.62800  1.0000
  C   C105      1.0  0.12300  0.31900  0.00000  1.0000
  C   C106      1.0  0.87700  0.68100  0.00000  1.0000
  C   C107      1.0  0.62300  0.18100  0.50000  1.0000
  C   C108      1.0  0.37700  0.81900  0.50000  1.0000
  C   C109      1.0  0.19900  0.22600  0.00000  1.0000
  C   C110      1.0  0.80100  0.77400  0.00000  1.0000
  C   C111      1.0  0.69900  0.27400  0.50000  1.0000
  C   C112      1.0  0.30100  0.72600  0.50000  1.0000
  C   C113      1.0  0.18700  0.77400  0.07710  1.0000
  C   C114      1.0  0.81300  0.22600  0.07710  1.0000
  C   C115      1.0  0.68700  0.72600  0.42300  1.0000
  C   C116      1.0  0.31300  0.27400  0.42300  1.0000
  C   C117      1.0  0.81300  0.22600  0.92300  1.0000
  C   C118      1.0  0.18700  0.77400  0.92300  1.0000
  C   C119      1.0  0.31300  0.27400  0.57700  1.0000
  C   C120      1.0  0.68700  0.72600  0.57700  1.0000
  K   K1        1.0  0.50000  0.00000  0.00000  1.0000
  K   K2        1.0  0.00000  0.50000  0.50000  1.0000
