data_image0
_chemical_formula_structural       Cl16Co4Rb8
_chemical_formula_sum              "Cl16 Co4 Rb8"
_cell_length_a       12.2831
_cell_length_b       7.04028
_cell_length_c       9.21888
_cell_angle_alpha    90
_cell_angle_beta     90
_cell_angle_gamma    90

_space_group_name_H-M_alt    "P 1"
_space_group_IT_number       1

loop_
  _space_group_symop_operation_xyz
  'x, y, z'

loop_
  _atom_site_type_symbol
  _atom_site_label
  _atom_site_symmetry_multiplicity
  _atom_site_fract_x
  _atom_site_fract_y
  _atom_site_fract_z
  _atom_site_occupancy
  Cl  Cl1       1.0  0.16100  0.00551  0.18200  1.0000
  Cl  Cl2       1.0  0.83900  0.50600  0.81800  1.0000
  Cl  Cl3       1.0  0.33900  0.00551  0.68200  1.0000
  Cl  Cl4       1.0  0.66100  0.50600  0.31800  1.0000
  Cl  Cl5       1.0  0.09940  0.74800  0.51600  1.0000
  Cl  Cl6       1.0  0.90100  0.24800  0.48400  1.0000
  Cl  Cl7       1.0  0.40100  0.74800  0.01590  1.0000
  Cl  Cl8       1.0  0.59900  0.24800  0.98400  1.0000
  Cl  Cl9       1.0  0.08830  0.25700  0.82300  1.0000
  Cl  Cl10      1.0  0.91200  0.75700  0.17700  1.0000
  Cl  Cl11      1.0  0.41200  0.25700  0.32300  1.0000
  Cl  Cl12      1.0  0.58800  0.75700  0.67700  1.0000
  Cl  Cl13      1.0  0.15400  0.49000  0.18000  1.0000
  Cl  Cl14      1.0  0.84600  0.99000  0.82000  1.0000
  Cl  Cl15      1.0  0.34600  0.49000  0.68000  1.0000
  Cl  Cl16      1.0  0.65400  0.99000  0.32000  1.0000
  Co  Co1       1.0  0.07960  0.75000  0.27400  1.0000
  Co  Co2       1.0  0.92000  0.25000  0.72600  1.0000
  Co  Co3       1.0  0.42000  0.75000  0.77400  1.0000
  Co  Co4       1.0  0.58000  0.25000  0.22600  1.0000
  Rb  Rb1       1.0  0.16800  0.25300  0.48500  1.0000
  Rb  Rb2       1.0  0.83200  0.75300  0.51500  1.0000
  Rb  Rb3       1.0  0.33200  0.25300  0.98500  1.0000
  Rb  Rb4       1.0  0.66800  0.75300  0.01490  1.0000
  Rb  Rb5       1.0  0.09630  0.75600  0.87400  1.0000
  Rb  Rb6       1.0  0.90400  0.25600  0.12600  1.0000
  Rb  Rb7       1.0  0.40400  0.75600  0.37400  1.0000
  Rb  Rb8       1.0  0.59600  0.25600  0.62600  1.0000
