data_image0
_chemical_formula_structural       Hg7K2
_chemical_formula_sum              "Hg7 K2"
_cell_length_a       7.08148
_cell_length_b       7.08164
_cell_length_c       6.60983
_cell_angle_alpha    89.9999
_cell_angle_beta     90.0013
_cell_angle_gamma    120.001

_space_group_name_H-M_alt    "P 1"
_space_group_IT_number       1

loop_
  _space_group_symop_operation_xyz
  'x, y, z'

loop_
  _atom_site_type_symbol
  _atom_site_label
  _atom_site_symmetry_multiplicity
  _atom_site_fract_x
  _atom_site_fract_y
  _atom_site_fract_z
  _atom_site_occupancy
  Hg  Hg1       1.0  0.00000  0.00000  0.00000  1.0000
  Hg  Hg2       1.0  0.18100  0.81900  0.33300  1.0000
  Hg  Hg3       1.0  0.18100  0.36200  0.33300  1.0000
  Hg  Hg4       1.0  0.63800  0.81900  0.33300  1.0000
  Hg  Hg5       1.0  0.36200  0.18100  0.66700  1.0000
  Hg  Hg6       1.0  0.81900  0.63800  0.66700  1.0000
  Hg  Hg7       1.0  0.81900  0.18100  0.66700  1.0000
  K   K1        1.0  0.66700  0.33300  0.15500  1.0000
  K   K2        1.0  0.33300  0.66700  0.84500  1.0000
