data_image0
_chemical_formula_structural       Ga6I2Li8O24Si6
_chemical_formula_sum              "Ga6 I2 Li8 O24 Si6"
_cell_length_a       8.45767
_cell_length_b       8.45767
_cell_length_c       8.45767
_cell_angle_alpha    90
_cell_angle_beta     90
_cell_angle_gamma    90

_space_group_name_H-M_alt    "P 1"
_space_group_IT_number       1

loop_
  _space_group_symop_operation_xyz
  'x, y, z'

loop_
  _atom_site_type_symbol
  _atom_site_label
  _atom_site_symmetry_multiplicity
  _atom_site_fract_x
  _atom_site_fract_y
  _atom_site_fract_z
  _atom_site_occupancy
  Ga  Ga1       1.0  0.25000  0.50000  0.00000  1.0000
  Ga  Ga2       1.0  0.75000  0.50000  0.00000  1.0000
  Ga  Ga3       1.0  0.00000  0.25000  0.50000  1.0000
  Ga  Ga4       1.0  0.50000  0.00000  0.25000  1.0000
  Ga  Ga5       1.0  0.00000  0.75000  0.50000  1.0000
  Ga  Ga6       1.0  0.50000  0.00000  0.75000  1.0000
  I   I1        1.0  0.00000  0.00000  0.00000  1.0000
  I   I2        1.0  0.50000  0.50000  0.50000  1.0000
  Li  Li1       1.0  0.18100  0.18100  0.18100  1.0000
  Li  Li2       1.0  0.81900  0.81900  0.18100  1.0000
  Li  Li3       1.0  0.18100  0.81900  0.81900  1.0000
  Li  Li4       1.0  0.81900  0.18100  0.81900  1.0000
  Li  Li5       1.0  0.68100  0.68100  0.68100  1.0000
  Li  Li6       1.0  0.31900  0.31900  0.68100  1.0000
  Li  Li7       1.0  0.31900  0.68100  0.31900  1.0000
  Li  Li8       1.0  0.68100  0.31900  0.31900  1.0000
  O   O1        1.0  0.14500  0.12600  0.39800  1.0000
  O   O2        1.0  0.85500  0.87400  0.39800  1.0000
  O   O3        1.0  0.14500  0.87400  0.60200  1.0000
  O   O4        1.0  0.85500  0.12600  0.60200  1.0000
  O   O5        1.0  0.39800  0.14500  0.12600  1.0000
  O   O6        1.0  0.12600  0.39800  0.14500  1.0000
  O   O7        1.0  0.60200  0.85500  0.12600  1.0000
  O   O8        1.0  0.87400  0.39800  0.85500  1.0000
  O   O9        1.0  0.39800  0.85500  0.87400  1.0000
  O   O10       1.0  0.87400  0.60200  0.14500  1.0000
  O   O11       1.0  0.60200  0.14500  0.87400  1.0000
  O   O12       1.0  0.12600  0.60200  0.85500  1.0000
  O   O13       1.0  0.62600  0.64500  0.89800  1.0000
  O   O14       1.0  0.37400  0.35500  0.89800  1.0000
  O   O15       1.0  0.37400  0.64500  0.10200  1.0000
  O   O16       1.0  0.62600  0.35500  0.10200  1.0000
  O   O17       1.0  0.64500  0.89800  0.62600  1.0000
  O   O18       1.0  0.89800  0.62600  0.64500  1.0000
  O   O19       1.0  0.35500  0.10200  0.62600  1.0000
  O   O20       1.0  0.89800  0.37400  0.35500  1.0000
  O   O21       1.0  0.35500  0.89800  0.37400  1.0000
  O   O22       1.0  0.10200  0.37400  0.64500  1.0000
  O   O23       1.0  0.64500  0.10200  0.37400  1.0000
  O   O24       1.0  0.10200  0.62600  0.35500  1.0000
  Si  Si1       1.0  0.25000  0.00000  0.50000  1.0000
  Si  Si2       1.0  0.75000  0.00000  0.50000  1.0000
  Si  Si3       1.0  0.50000  0.25000  0.00000  1.0000
  Si  Si4       1.0  0.00000  0.50000  0.25000  1.0000
  Si  Si5       1.0  0.50000  0.75000  0.00000  1.0000
  Si  Si6       1.0  0.00000  0.50000  0.75000  1.0000
