data_image0
_chemical_formula_structural       Al6Ge6I2Li8O24
_chemical_formula_sum              "Al6 Ge6 I2 Li8 O24"
_cell_length_a       8.5249
_cell_length_b       8.5249
_cell_length_c       8.5249
_cell_angle_alpha    90
_cell_angle_beta     90
_cell_angle_gamma    90

_space_group_name_H-M_alt    "P 1"
_space_group_IT_number       1

loop_
  _space_group_symop_operation_xyz
  'x, y, z'

loop_
  _atom_site_type_symbol
  _atom_site_label
  _atom_site_symmetry_multiplicity
  _atom_site_fract_x
  _atom_site_fract_y
  _atom_site_fract_z
  _atom_site_occupancy
  Al  Al1       1.0  0.25000  0.50000  0.00000  1.0000
  Al  Al2       1.0  0.75000  0.50000  0.00000  1.0000
  Al  Al3       1.0  0.00000  0.25000  0.50000  1.0000
  Al  Al4       1.0  0.50000  0.00000  0.25000  1.0000
  Al  Al5       1.0  0.00000  0.75000  0.50000  1.0000
  Al  Al6       1.0  0.50000  0.00000  0.75000  1.0000
  Ge  Ge1       1.0  0.25000  0.00000  0.50000  1.0000
  Ge  Ge2       1.0  0.75000  0.00000  0.50000  1.0000
  Ge  Ge3       1.0  0.50000  0.25000  0.00000  1.0000
  Ge  Ge4       1.0  0.00000  0.50000  0.25000  1.0000
  Ge  Ge5       1.0  0.50000  0.75000  0.00000  1.0000
  Ge  Ge6       1.0  0.00000  0.50000  0.75000  1.0000
  I   I1        1.0  0.00000  0.00000  0.00000  1.0000
  I   I2        1.0  0.50000  0.50000  0.50000  1.0000
  Li  Li1       1.0  0.18000  0.18000  0.18000  1.0000
  Li  Li2       1.0  0.82000  0.82000  0.18000  1.0000
  Li  Li3       1.0  0.18000  0.82000  0.82000  1.0000
  Li  Li4       1.0  0.82000  0.18000  0.82000  1.0000
  Li  Li5       1.0  0.68000  0.68000  0.68000  1.0000
  Li  Li6       1.0  0.32000  0.32000  0.68000  1.0000
  Li  Li7       1.0  0.32000  0.68000  0.32000  1.0000
  Li  Li8       1.0  0.68000  0.32000  0.32000  1.0000
  O   O1        1.0  0.13600  0.13700  0.39700  1.0000
  O   O2        1.0  0.86400  0.86300  0.39700  1.0000
  O   O3        1.0  0.13600  0.86300  0.60300  1.0000
  O   O4        1.0  0.86400  0.13700  0.60300  1.0000
  O   O5        1.0  0.39700  0.13600  0.13700  1.0000
  O   O6        1.0  0.13700  0.39700  0.13600  1.0000
  O   O7        1.0  0.60300  0.86400  0.13700  1.0000
  O   O8        1.0  0.86300  0.39700  0.86400  1.0000
  O   O9        1.0  0.39700  0.86400  0.86300  1.0000
  O   O10       1.0  0.86300  0.60300  0.13600  1.0000
  O   O11       1.0  0.60300  0.13600  0.86300  1.0000
  O   O12       1.0  0.13700  0.60300  0.86400  1.0000
  O   O13       1.0  0.63700  0.63600  0.89700  1.0000
  O   O14       1.0  0.36300  0.36400  0.89700  1.0000
  O   O15       1.0  0.36300  0.63600  0.10300  1.0000
  O   O16       1.0  0.63700  0.36400  0.10300  1.0000
  O   O17       1.0  0.63600  0.89700  0.63700  1.0000
  O   O18       1.0  0.89700  0.63700  0.63600  1.0000
  O   O19       1.0  0.36400  0.10300  0.63700  1.0000
  O   O20       1.0  0.89700  0.36300  0.36400  1.0000
  O   O21       1.0  0.36400  0.89700  0.36300  1.0000
  O   O22       1.0  0.10300  0.36300  0.63600  1.0000
  O   O23       1.0  0.63600  0.10300  0.36300  1.0000
  O   O24       1.0  0.10300  0.63700  0.36400  1.0000
