data_image0
_chemical_formula_structural       Ca8O12Pd2
_chemical_formula_sum              "Ca8 O12 Pd2"
_cell_length_a       6.46357
_cell_length_b       6.46357
_cell_length_c       6.46357
_cell_angle_alpha    90.3337
_cell_angle_beta     90.3337
_cell_angle_gamma    90.3337

_space_group_name_H-M_alt    "P 1"
_space_group_IT_number       1

loop_
  _space_group_symop_operation_xyz
  'x, y, z'

loop_
  _atom_site_type_symbol
  _atom_site_label
  _atom_site_symmetry_multiplicity
  _atom_site_fract_x
  _atom_site_fract_y
  _atom_site_fract_z
  _atom_site_occupancy
  Ca  Ca1       1.0  0.61800  0.88200  0.25000  1.0000
  Ca  Ca2       1.0  0.25000  0.61800  0.88200  1.0000
  Ca  Ca3       1.0  0.88200  0.25000  0.61800  1.0000
  Ca  Ca4       1.0  0.38200  0.11800  0.75000  1.0000
  Ca  Ca5       1.0  0.75000  0.38200  0.11800  1.0000
  Ca  Ca6       1.0  0.11800  0.75000  0.38200  1.0000
  Ca  Ca7       1.0  0.25000  0.25000  0.25000  1.0000
  Ca  Ca8       1.0  0.75000  0.75000  0.75000  1.0000
  O   O1        1.0  0.30000  0.94400  0.07210  1.0000
  O   O2        1.0  0.07210  0.30000  0.94400  1.0000
  O   O3        1.0  0.94400  0.07210  0.30000  1.0000
  O   O4        1.0  0.55600  0.20000  0.42800  1.0000
  O   O5        1.0  0.20000  0.42800  0.55600  1.0000
  O   O6        1.0  0.42800  0.55600  0.20000  1.0000
  O   O7        1.0  0.70000  0.05550  0.92800  1.0000
  O   O8        1.0  0.92800  0.70000  0.05550  1.0000
  O   O9        1.0  0.05550  0.92800  0.70000  1.0000
  O   O10       1.0  0.44400  0.80000  0.57200  1.0000
  O   O11       1.0  0.80000  0.57200  0.44400  1.0000
  O   O12       1.0  0.57200  0.44400  0.80000  1.0000
  Pd  Pd1       1.0  0.00000  0.00000  0.00000  1.0000
  Pd  Pd2       1.0  0.50000  0.50000  0.50000  1.0000
