data_image0
_chemical_formula_structural       Li4O24S6V4
_chemical_formula_sum              "Li4 O24 S6 V4"
_cell_length_a       7.64194
_cell_length_b       7.64194
_cell_length_c       8.59588
_cell_angle_alpha    68.2583
_cell_angle_beta     111.742
_cell_angle_gamma    112.865

_space_group_name_H-M_alt    "P 1"
_space_group_IT_number       1

loop_
  _space_group_symop_operation_xyz
  'x, y, z'

loop_
  _atom_site_type_symbol
  _atom_site_label
  _atom_site_symmetry_multiplicity
  _atom_site_fract_x
  _atom_site_fract_y
  _atom_site_fract_z
  _atom_site_occupancy
  Li  Li1       1.0  0.13800  0.67700  0.04930  1.0000
  Li  Li2       1.0  0.67700  0.13800  0.45100  1.0000
  Li  Li3       1.0  0.86200  0.32300  0.95100  1.0000
  Li  Li4       1.0  0.32300  0.86200  0.54900  1.0000
  O   O1        1.0  0.25100  0.10300  0.20100  1.0000
  O   O2        1.0  0.10300  0.25100  0.29900  1.0000
  O   O3        1.0  0.74900  0.89700  0.79900  1.0000
  O   O4        1.0  0.89700  0.74900  0.70100  1.0000
  O   O5        1.0  0.89800  0.05640  0.10200  1.0000
  O   O6        1.0  0.05640  0.89800  0.39800  1.0000
  O   O7        1.0  0.10200  0.94400  0.89800  1.0000
  O   O8        1.0  0.94400  0.10200  0.60200  1.0000
  O   O9        1.0  0.45200  0.86400  0.13900  1.0000
  O   O10       1.0  0.86400  0.45200  0.36100  1.0000
  O   O11       1.0  0.54800  0.13600  0.86100  1.0000
  O   O12       1.0  0.13600  0.54800  0.63900  1.0000
  O   O13       1.0  0.51900  0.87600  0.44000  1.0000
  O   O14       1.0  0.87600  0.51900  0.06000  1.0000
  O   O15       1.0  0.48100  0.12400  0.56000  1.0000
  O   O16       1.0  0.12400  0.48100  0.94000  1.0000
  O   O17       1.0  0.58000  0.62400  0.37900  1.0000
  O   O18       1.0  0.62400  0.58000  0.12100  1.0000
  O   O19       1.0  0.42000  0.37600  0.62100  1.0000
  O   O20       1.0  0.37600  0.42000  0.87900  1.0000
  O   O21       1.0  0.63600  0.24400  0.18700  1.0000
  O   O22       1.0  0.24400  0.63600  0.31300  1.0000
  O   O23       1.0  0.36400  0.75600  0.81300  1.0000
  O   O24       1.0  0.75600  0.36400  0.68700  1.0000
  S   S1        1.0  0.07750  0.07750  0.25000  1.0000
  S   S2        1.0  0.92300  0.92300  0.75000  1.0000
  S   S3        1.0  0.45400  0.74800  0.32600  1.0000
  S   S4        1.0  0.74800  0.45400  0.17400  1.0000
  S   S5        1.0  0.54600  0.25200  0.67400  1.0000
  S   S6        1.0  0.25200  0.54600  0.82600  1.0000
  V   V1        1.0  0.37200  0.13000  0.01100  1.0000
  V   V2        1.0  0.13000  0.37200  0.48900  1.0000
  V   V3        1.0  0.62800  0.87000  0.98900  1.0000
  V   V4        1.0  0.87000  0.62800  0.51100  1.0000
