data_image0
_chemical_formula_structural       B40H72
_chemical_formula_sum              "B40 H72"
_cell_length_a       9.58189
_cell_length_b       9.58189
_cell_length_c       9.47113
_cell_angle_alpha    90
_cell_angle_beta     90
_cell_angle_gamma    90

_space_group_name_H-M_alt    "P 1"
_space_group_IT_number       1

loop_
  _space_group_symop_operation_xyz
  'x, y, z'

loop_
  _atom_site_type_symbol
  _atom_site_label
  _atom_site_symmetry_multiplicity
  _atom_site_fract_x
  _atom_site_fract_y
  _atom_site_fract_z
  _atom_site_occupancy
  B   B1        1.0  0.38300  0.83100  0.07490  1.0000
  B   B2        1.0  0.61700  0.16900  0.57500  1.0000
  B   B3        1.0  0.16900  0.38300  0.32500  1.0000
  B   B4        1.0  0.83100  0.61700  0.82500  1.0000
  B   B5        1.0  0.81000  0.10200  0.02310  1.0000
  B   B6        1.0  0.19000  0.89800  0.52300  1.0000
  B   B7        1.0  0.89800  0.81000  0.27300  1.0000
  B   B8        1.0  0.10200  0.19000  0.77300  1.0000
  B   B9        1.0  0.79100  0.28000  0.07330  1.0000
  B   B10       1.0  0.20900  0.72000  0.57300  1.0000
  B   B11       1.0  0.72000  0.79100  0.32300  1.0000
  B   B12       1.0  0.28000  0.20900  0.82300  1.0000
  B   B13       1.0  0.24400  0.73400  0.12400  1.0000
  B   B14       1.0  0.75600  0.26600  0.62400  1.0000
  B   B15       1.0  0.26600  0.24400  0.37400  1.0000
  B   B16       1.0  0.73400  0.75600  0.87400  1.0000
  B   B17       1.0  0.21000  0.87300  0.02020  1.0000
  B   B18       1.0  0.79000  0.12700  0.52000  1.0000
  B   B19       1.0  0.12700  0.21000  0.27000  1.0000
  B   B20       1.0  0.87300  0.79000  0.77000  1.0000
  B   B21       1.0  0.67200  0.15800  0.11800  1.0000
  B   B22       1.0  0.32800  0.84200  0.61800  1.0000
  B   B23       1.0  0.84200  0.67200  0.36800  1.0000
  B   B24       1.0  0.15800  0.32800  0.86800  1.0000
  B   B25       1.0  0.62000  0.28100  0.00105  1.0000
  B   B26       1.0  0.38000  0.71900  0.50100  1.0000
  B   B27       1.0  0.71900  0.62000  0.25100  1.0000
  B   B28       1.0  0.28100  0.38000  0.75100  1.0000
  B   B29       1.0  0.63900  0.10300  0.95200  1.0000
  B   B30       1.0  0.36100  0.89700  0.45200  1.0000
  B   B31       1.0  0.89700  0.63900  0.20200  1.0000
  B   B32       1.0  0.10300  0.36100  0.70200  1.0000
  B   B33       1.0  0.18800  0.69900  0.95900  1.0000
  B   B34       1.0  0.81200  0.30100  0.45900  1.0000
  B   B35       1.0  0.30100  0.18800  0.20900  1.0000
  B   B36       1.0  0.69900  0.81200  0.70900  1.0000
  B   B37       1.0  0.36000  0.65800  0.01360  1.0000
  B   B38       1.0  0.64000  0.34200  0.51400  1.0000
  B   B39       1.0  0.34200  0.36000  0.26400  1.0000
  B   B40       1.0  0.65800  0.64000  0.76400  1.0000
  H   H1        1.0  0.33500  0.92300  0.97800  1.0000
  H   H2        1.0  0.66500  0.07690  0.47800  1.0000
  H   H3        1.0  0.07690  0.33500  0.22800  1.0000
  H   H4        1.0  0.92300  0.66500  0.72800  1.0000
  H   H5        1.0  0.19900  0.70000  0.23600  1.0000
  H   H6        1.0  0.80100  0.30000  0.73600  1.0000
  H   H7        1.0  0.30000  0.19900  0.48600  1.0000
  H   H8        1.0  0.70000  0.80100  0.98600  1.0000
  H   H9        1.0  0.13300  0.97000  0.03570  1.0000
  H   H10       1.0  0.86700  0.03020  0.53600  1.0000
  H   H11       1.0  0.03020  0.13300  0.28600  1.0000
  H   H12       1.0  0.97000  0.86700  0.78600  1.0000
  H   H13       1.0  0.09140  0.63300  0.91900  1.0000
  H   H14       1.0  0.90900  0.36700  0.41900  1.0000
  H   H15       1.0  0.36700  0.09140  0.16900  1.0000
  H   H16       1.0  0.63300  0.90900  0.66900  1.0000
  H   H17       1.0  0.42600  0.55300  0.02340  1.0000
  H   H18       1.0  0.57400  0.44700  0.52300  1.0000
  H   H19       1.0  0.44700  0.42600  0.27300  1.0000
  H   H20       1.0  0.55300  0.57400  0.77300  1.0000
  H   H21       1.0  0.47100  0.88900  0.14100  1.0000
  H   H22       1.0  0.52900  0.11100  0.64100  1.0000
  H   H23       1.0  0.11100  0.47100  0.39100  1.0000
  H   H24       1.0  0.88900  0.52900  0.89100  1.0000
  H   H25       1.0  0.18700  0.82200  0.89000  1.0000
  H   H26       1.0  0.81300  0.17800  0.39000  1.0000
  H   H27       1.0  0.17800  0.18700  0.14000  1.0000
  H   H28       1.0  0.82200  0.81300  0.64000  1.0000
  H   H29       1.0  0.30000  0.65900  0.88500  1.0000
  H   H30       1.0  0.70000  0.34100  0.38500  1.0000
  H   H31       1.0  0.34100  0.30000  0.13500  1.0000
  H   H32       1.0  0.65900  0.70000  0.63500  1.0000
  H   H33       1.0  0.44900  0.75900  0.97200  1.0000
  H   H34       1.0  0.55100  0.24100  0.47200  1.0000
  H   H35       1.0  0.24100  0.44900  0.22200  1.0000
  H   H36       1.0  0.75900  0.55100  0.72200  1.0000
  H   H37       1.0  0.88000  0.21900  0.98300  1.0000
  H   H38       1.0  0.12000  0.78100  0.48300  1.0000
  H   H39       1.0  0.78100  0.88000  0.23300  1.0000
  H   H40       1.0  0.21900  0.12000  0.73300  1.0000
  H   H41       1.0  0.73500  0.35400  0.96600  1.0000
  H   H42       1.0  0.26500  0.64600  0.46600  1.0000
  H   H43       1.0  0.64600  0.73500  0.21600  1.0000
  H   H44       1.0  0.35400  0.26500  0.71600  1.0000
  H   H45       1.0  0.52600  0.36300  0.00185  1.0000
  H   H46       1.0  0.47400  0.63700  0.50200  1.0000
  H   H47       1.0  0.63700  0.52600  0.25200  1.0000
  H   H48       1.0  0.36300  0.47400  0.75200  1.0000
  H   H49       1.0  0.56200  0.01740  0.90500  1.0000
  H   H50       1.0  0.43800  0.98300  0.40500  1.0000
  H   H51       1.0  0.98300  0.56200  0.15500  1.0000
  H   H52       1.0  0.01740  0.43800  0.65500  1.0000
  H   H53       1.0  0.62500  0.12200  0.22900  1.0000
  H   H54       1.0  0.37500  0.87800  0.72900  1.0000
  H   H55       1.0  0.87800  0.62500  0.47900  1.0000
  H   H56       1.0  0.12200  0.37500  0.97900  1.0000
  H   H57       1.0  0.62000  0.22000  0.87400  1.0000
  H   H58       1.0  0.38000  0.78000  0.37400  1.0000
  H   H59       1.0  0.78000  0.62000  0.12400  1.0000
  H   H60       1.0  0.22000  0.38000  0.62400  1.0000
  H   H61       1.0  0.76400  0.08380  0.89000  1.0000
  H   H62       1.0  0.23600  0.91600  0.39000  1.0000
  H   H63       1.0  0.91600  0.76400  0.14000  1.0000
  H   H64       1.0  0.08380  0.23600  0.64000  1.0000
  H   H65       1.0  0.89700  0.01560  0.04480  1.0000
  H   H66       1.0  0.10300  0.98400  0.54500  1.0000
  H   H67       1.0  0.98400  0.89700  0.29500  1.0000
  H   H68       1.0  0.01560  0.10300  0.79500  1.0000
  H   H69       1.0  0.85700  0.35900  0.14300  1.0000
  H   H70       1.0  0.14300  0.64100  0.64300  1.0000
  H   H71       1.0  0.64100  0.85700  0.39300  1.0000
  H   H72       1.0  0.35900  0.14300  0.89300  1.0000
