data_image0
_chemical_formula_structural       O18Re4Sm6
_chemical_formula_sum              "O18 Re4 Sm6"
_cell_length_a       5.46649
_cell_length_b       6.73414
_cell_length_c       10.7862
_cell_angle_alpha    76.519
_cell_angle_beta     75.6252
_cell_angle_gamma    68.3096

_space_group_name_H-M_alt    "P 1"
_space_group_IT_number       1

loop_
  _space_group_symop_operation_xyz
  'x, y, z'

loop_
  _atom_site_type_symbol
  _atom_site_label
  _atom_site_symmetry_multiplicity
  _atom_site_fract_x
  _atom_site_fract_y
  _atom_site_fract_z
  _atom_site_occupancy
  O   O1        1.0  0.87200  0.18600  0.06150  1.0000
  O   O2        1.0  0.12800  0.81400  0.93900  1.0000
  O   O3        1.0  0.65200  0.53100  0.18300  1.0000
  O   O4        1.0  0.34800  0.46900  0.81700  1.0000
  O   O5        1.0  0.58300  0.20000  0.40000  1.0000
  O   O6        1.0  0.41700  0.80000  0.60000  1.0000
  O   O7        1.0  0.58600  0.07470  0.68900  1.0000
  O   O8        1.0  0.41400  0.92500  0.31100  1.0000
  O   O9        1.0  0.38500  0.16700  0.07390  1.0000
  O   O10       1.0  0.61500  0.83300  0.92600  1.0000
  O   O11       1.0  0.27300  0.42900  0.58000  1.0000
  O   O12       1.0  0.72700  0.57100  0.42000  1.0000
  O   O13       1.0  0.17000  0.50900  0.19700  1.0000
  O   O14       1.0  0.83000  0.49100  0.80300  1.0000
  O   O15       1.0  0.06400  0.19500  0.47700  1.0000
  O   O16       1.0  0.93600  0.80500  0.52300  1.0000
  O   O17       1.0  0.05560  0.11100  0.72200  1.0000
  O   O18       1.0  0.94400  0.88900  0.27800  1.0000
  Re  Re1       1.0  0.51400  0.38800  0.09290  1.0000
  Re  Re2       1.0  0.48600  0.61200  0.90700  1.0000
  Re  Re3       1.0  0.34300  0.12600  0.56900  1.0000
  Re  Re4       1.0  0.65700  0.87400  0.43100  1.0000
  Sm  Sm1       1.0  0.29700  0.60600  0.36900  1.0000
  Sm  Sm2       1.0  0.70300  0.39400  0.63100  1.0000
  Sm  Sm3       1.0  0.22800  0.15600  0.88500  1.0000
  Sm  Sm4       1.0  0.77200  0.84400  0.11500  1.0000
  Sm  Sm5       1.0  0.00596  0.21800  0.26900  1.0000
  Sm  Sm6       1.0  0.99400  0.78200  0.73100  1.0000
