data_image0
_chemical_formula_structural       Bi4Co4O20P4
_chemical_formula_sum              "Bi4 Co4 O20 P4"
_cell_length_a       7.0923
_cell_length_b       11.1797
_cell_length_c       5.10088
_cell_angle_alpha    90
_cell_angle_beta     107.033
_cell_angle_gamma    90

_space_group_name_H-M_alt    "P 1"
_space_group_IT_number       1

loop_
  _space_group_symop_operation_xyz
  'x, y, z'

loop_
  _atom_site_type_symbol
  _atom_site_label
  _atom_site_symmetry_multiplicity
  _atom_site_fract_x
  _atom_site_fract_y
  _atom_site_fract_z
  _atom_site_occupancy
  Bi  Bi1       1.0  0.80700  0.89600  0.89700  1.0000
  Bi  Bi2       1.0  0.30700  0.60400  0.39700  1.0000
  Bi  Bi3       1.0  0.19300  0.10400  0.10300  1.0000
  Bi  Bi4       1.0  0.69300  0.39600  0.60300  1.0000
  Co  Co1       1.0  0.81400  0.08050  0.37100  1.0000
  Co  Co2       1.0  0.68600  0.58000  0.12900  1.0000
  Co  Co3       1.0  0.18600  0.92000  0.62900  1.0000
  Co  Co4       1.0  0.31400  0.42000  0.87100  1.0000
  O   O1        1.0  0.09890  0.32500  0.97100  1.0000
  O   O2        1.0  0.40100  0.82500  0.52900  1.0000
  O   O3        1.0  0.90100  0.67500  0.02940  1.0000
  O   O4        1.0  0.59900  0.17500  0.47100  1.0000
  O   O5        1.0  0.97900  0.02790  0.74600  1.0000
  O   O6        1.0  0.52100  0.52800  0.75400  1.0000
  O   O7        1.0  0.02130  0.97200  0.25400  1.0000
  O   O8        1.0  0.47900  0.47200  0.24600  1.0000
  O   O9        1.0  0.82100  0.41400  0.11900  1.0000
  O   O10       1.0  0.67900  0.91400  0.38100  1.0000
  O   O11       1.0  0.17900  0.58600  0.88100  1.0000
  O   O12       1.0  0.32100  0.08580  0.61900  1.0000
  O   O13       1.0  0.98900  0.22100  0.32600  1.0000
  O   O14       1.0  0.51100  0.72100  0.17400  1.0000
  O   O15       1.0  0.01120  0.77900  0.67400  1.0000
  O   O16       1.0  0.48900  0.27900  0.82600  1.0000
  O   O17       1.0  0.16200  0.41800  0.45000  1.0000
  O   O18       1.0  0.33800  0.91800  0.04970  1.0000
  O   O19       1.0  0.83800  0.58200  0.55000  1.0000
  O   O20       1.0  0.66200  0.08160  0.95000  1.0000
  P   P1        1.0  0.01780  0.34600  0.21900  1.0000
  P   P2        1.0  0.48200  0.84600  0.28100  1.0000
  P   P3        1.0  0.98200  0.65400  0.78100  1.0000
  P   P4        1.0  0.51800  0.15400  0.71900  1.0000
