data_image0
_chemical_formula_structural       F2N2O4Xe
_chemical_formula_sum              "F2 N2 O4 Xe1"
_cell_length_a       4.43664
_cell_length_b       4.82225
_cell_length_c       5.94885
_cell_angle_alpha    80.8903
_cell_angle_beta     89.1668
_cell_angle_gamma    80.3423

_space_group_name_H-M_alt    "P 1"
_space_group_IT_number       1

loop_
  _space_group_symop_operation_xyz
  'x, y, z'

loop_
  _atom_site_type_symbol
  _atom_site_label
  _atom_site_symmetry_multiplicity
  _atom_site_fract_x
  _atom_site_fract_y
  _atom_site_fract_z
  _atom_site_occupancy
  F   F1        1.0  0.68900  0.75300  0.14700  1.0000
  F   F2        1.0  0.31100  0.24700  0.85300  1.0000
  N   N1        1.0  0.50300  0.35800  0.42400  1.0000
  N   N2        1.0  0.49700  0.64200  0.57600  1.0000
  O   O1        1.0  0.28100  0.38400  0.30400  1.0000
  O   O2        1.0  0.73000  0.18100  0.46300  1.0000
  O   O3        1.0  0.27000  0.81800  0.53700  1.0000
  O   O4        1.0  0.71900  0.61600  0.69600  1.0000
  Xe  Xe1       1.0  0.00000  0.00000  0.00000  1.0000
