data_image0
_chemical_formula_structural       Ca4Fe2Mo2O12
_chemical_formula_sum              "Ca4 Fe2 Mo2 O12"
_cell_length_a       5.34793
_cell_length_b       5.49868
_cell_length_c       7.63486
_cell_angle_alpha    90
_cell_angle_beta     89.8597
_cell_angle_gamma    90

_space_group_name_H-M_alt    "P 1"
_space_group_IT_number       1

loop_
  _space_group_symop_operation_xyz
  'x, y, z'

loop_
  _atom_site_type_symbol
  _atom_site_label
  _atom_site_symmetry_multiplicity
  _atom_site_fract_x
  _atom_site_fract_y
  _atom_site_fract_z
  _atom_site_occupancy
  Ca  Ca1       1.0  0.48800  0.44700  0.74800  1.0000
  Ca  Ca2       1.0  0.01170  0.94700  0.75200  1.0000
  Ca  Ca3       1.0  0.51200  0.55300  0.25200  1.0000
  Ca  Ca4       1.0  0.98800  0.05320  0.24800  1.0000
  Fe  Fe1       1.0  0.00000  0.50000  0.00000  1.0000
  Fe  Fe2       1.0  0.50000  0.00000  0.50000  1.0000
  Mo  Mo1       1.0  0.50000  0.00000  0.00000  1.0000
  Mo  Mo2       1.0  0.00000  0.50000  0.50000  1.0000
  O   O1        1.0  0.20400  0.19900  0.95400  1.0000
  O   O2        1.0  0.59000  0.02500  0.75300  1.0000
  O   O3        1.0  0.91000  0.52500  0.74700  1.0000
  O   O4        1.0  0.41000  0.97500  0.24700  1.0000
  O   O5        1.0  0.08980  0.47500  0.25300  1.0000
  O   O6        1.0  0.19500  0.20600  0.54800  1.0000
  O   O7        1.0  0.30500  0.70600  0.95200  1.0000
  O   O8        1.0  0.80500  0.79400  0.45200  1.0000
  O   O9        1.0  0.69500  0.29400  0.04790  1.0000
  O   O10       1.0  0.70400  0.30100  0.45400  1.0000
  O   O11       1.0  0.79600  0.80100  0.04560  1.0000
  O   O12       1.0  0.29600  0.69900  0.54600  1.0000
