data_image0
_chemical_formula_structural       Ge2Li4Zr
_chemical_formula_sum              "Ge2 Li4 Zr1"
_cell_length_a       4.40099
_cell_length_b       4.40099
_cell_length_c       7.54198
_cell_angle_alpha    90
_cell_angle_beta     106.964
_cell_angle_gamma    60

_space_group_name_H-M_alt    "P 1"
_space_group_IT_number       1

loop_
  _space_group_symop_operation_xyz
  'x, y, z'

loop_
  _atom_site_type_symbol
  _atom_site_label
  _atom_site_symmetry_multiplicity
  _atom_site_fract_x
  _atom_site_fract_y
  _atom_site_fract_z
  _atom_site_occupancy
  Ge  Ge1       1.0  0.74900  0.62600  0.12300  1.0000
  Ge  Ge2       1.0  0.25100  0.37400  0.87700  1.0000
  Li  Li1       1.0  0.14700  0.92600  0.22100  1.0000
  Li  Li2       1.0  0.50200  0.24900  0.25300  1.0000
  Li  Li3       1.0  0.49800  0.75100  0.74700  1.0000
  Li  Li4       1.0  0.85300  0.07370  0.77900  1.0000
  Zr  Zr1       1.0  0.00000  0.50000  0.50000  1.0000
