data_image0
_chemical_formula_structural       Ag2Gd2Se4
_chemical_formula_sum              "Ag2 Gd2 Se4"
_cell_length_a       5.71118
_cell_length_b       5.71118
_cell_length_c       7.34555
_cell_angle_alpha    112.877
_cell_angle_beta     112.877
_cell_angle_gamma    90

_space_group_name_H-M_alt    "P 1"
_space_group_IT_number       1

loop_
  _space_group_symop_operation_xyz
  'x, y, z'

loop_
  _atom_site_type_symbol
  _atom_site_label
  _atom_site_symmetry_multiplicity
  _atom_site_fract_x
  _atom_site_fract_y
  _atom_site_fract_z
  _atom_site_occupancy
  Ag  Ag1       1.0  0.53200  0.53200  0.06460  1.0000
  Ag  Ag2       1.0  0.78200  0.28200  0.56500  1.0000
  Gd  Gd1       1.0  0.00381  0.00381  0.00763  1.0000
  Gd  Gd2       1.0  0.25400  0.75400  0.50800  1.0000
  Se  Se1       1.0  0.01550  0.51600  0.03110  1.0000
  Se  Se2       1.0  0.23800  0.23800  0.47700  1.0000
  Se  Se3       1.0  0.76600  0.76600  0.53100  1.0000
  Se  Se4       1.0  0.48800  0.98800  0.97700  1.0000
