data_image0
_chemical_formula_structural       Cs2F6Hf
_chemical_formula_sum              "Cs2 F6 Hf1"
_cell_length_a       6.18286
_cell_length_b       6.1826
_cell_length_c       4.80551
_cell_angle_alpha    90
_cell_angle_beta     90.0042
_cell_angle_gamma    119.999

_space_group_name_H-M_alt    "P 1"
_space_group_IT_number       1

loop_
  _space_group_symop_operation_xyz
  'x, y, z'

loop_
  _atom_site_type_symbol
  _atom_site_label
  _atom_site_symmetry_multiplicity
  _atom_site_fract_x
  _atom_site_fract_y
  _atom_site_fract_z
  _atom_site_occupancy
  Cs  Cs1       1.0  0.66700  0.33300  0.30100  1.0000
  Cs  Cs2       1.0  0.33300  0.66700  0.69900  1.0000
  F   F1        1.0  0.15600  0.84400  0.22900  1.0000
  F   F2        1.0  0.15600  0.31200  0.22900  1.0000
  F   F3        1.0  0.68800  0.84400  0.22900  1.0000
  F   F4        1.0  0.31200  0.15600  0.77100  1.0000
  F   F5        1.0  0.84400  0.68800  0.77100  1.0000
  F   F6        1.0  0.84400  0.15600  0.77100  1.0000
  Hf  Hf1       1.0  0.00000  0.00000  0.00000  1.0000
