data_image0
_chemical_formula_structural       Ce20Ge8Rh4
_chemical_formula_sum              "Ce20 Ge8 Rh4"
_cell_length_a       12.5441
_cell_length_b       9.04242
_cell_length_c       8.14681
_cell_angle_alpha    90
_cell_angle_beta     90
_cell_angle_gamma    90

_space_group_name_H-M_alt    "P 1"
_space_group_IT_number       1

loop_
  _space_group_symop_operation_xyz
  'x, y, z'

loop_
  _atom_site_type_symbol
  _atom_site_label
  _atom_site_symmetry_multiplicity
  _atom_site_fract_x
  _atom_site_fract_y
  _atom_site_fract_z
  _atom_site_occupancy
  Ce  Ce1       1.0  0.28400  0.25000  0.16700  1.0000
  Ce  Ce2       1.0  0.21600  0.75000  0.66700  1.0000
  Ce  Ce3       1.0  0.78400  0.25000  0.33300  1.0000
  Ce  Ce4       1.0  0.71600  0.75000  0.83300  1.0000
  Ce  Ce5       1.0  0.20500  0.25000  0.64600  1.0000
  Ce  Ce6       1.0  0.29500  0.75000  0.14600  1.0000
  Ce  Ce7       1.0  0.70500  0.25000  0.85400  1.0000
  Ce  Ce8       1.0  0.79500  0.75000  0.35400  1.0000
  Ce  Ce9       1.0  0.00111  0.25000  0.03570  1.0000
  Ce  Ce10      1.0  0.49900  0.75000  0.53600  1.0000
  Ce  Ce11      1.0  0.50100  0.25000  0.46400  1.0000
  Ce  Ce12      1.0  0.99900  0.75000  0.96400  1.0000
  Ce  Ce13      1.0  0.07340  0.53400  0.31700  1.0000
  Ce  Ce14      1.0  0.42700  0.46600  0.81700  1.0000
  Ce  Ce15      1.0  0.57300  0.96600  0.18300  1.0000
  Ce  Ce16      1.0  0.92700  0.03430  0.68300  1.0000
  Ce  Ce17      1.0  0.92700  0.46600  0.68300  1.0000
  Ce  Ce18      1.0  0.57300  0.53400  0.18300  1.0000
  Ce  Ce19      1.0  0.42700  0.03430  0.81700  1.0000
  Ce  Ce20      1.0  0.07340  0.96600  0.31700  1.0000
  Ge  Ge1       1.0  0.32800  0.50400  0.43600  1.0000
  Ge  Ge2       1.0  0.17200  0.49600  0.93600  1.0000
  Ge  Ge3       1.0  0.82800  0.99600  0.06390  1.0000
  Ge  Ge4       1.0  0.67200  0.00400  0.56400  1.0000
  Ge  Ge5       1.0  0.67200  0.49600  0.56400  1.0000
  Ge  Ge6       1.0  0.82800  0.50400  0.06390  1.0000
  Ge  Ge7       1.0  0.17200  0.00400  0.93600  1.0000
  Ge  Ge8       1.0  0.32800  0.99600  0.43600  1.0000
  Rh  Rh1       1.0  0.01410  0.25000  0.42700  1.0000
  Rh  Rh2       1.0  0.48600  0.75000  0.92700  1.0000
  Rh  Rh3       1.0  0.51400  0.25000  0.07290  1.0000
  Rh  Rh4       1.0  0.98600  0.75000  0.57300  1.0000
