data_image0
_chemical_formula_structural       C4K4La4O16
_chemical_formula_sum              "C4 K4 La4 O16"
_cell_length_a       5.47923
_cell_length_b       14.4137
_cell_length_c       5.47636
_cell_angle_alpha    90
_cell_angle_beta     90
_cell_angle_gamma    90

_space_group_name_H-M_alt    "P 1"
_space_group_IT_number       1

loop_
  _space_group_symop_operation_xyz
  'x, y, z'

loop_
  _atom_site_type_symbol
  _atom_site_label
  _atom_site_symmetry_multiplicity
  _atom_site_fract_x
  _atom_site_fract_y
  _atom_site_fract_z
  _atom_site_occupancy
  C   C1        1.0  0.00000  0.73000  0.75000  1.0000
  C   C2        1.0  0.50000  0.27000  0.75000  1.0000
  C   C3        1.0  0.00000  0.27000  0.25000  1.0000
  C   C4        1.0  0.50000  0.73000  0.25000  1.0000
  K   K1        1.0  0.00000  0.43800  0.25000  1.0000
  K   K2        1.0  0.50000  0.56200  0.25000  1.0000
  K   K3        1.0  0.00000  0.56200  0.75000  1.0000
  K   K4        1.0  0.50000  0.43800  0.75000  1.0000
  La  La1       1.0  0.00000  0.08760  0.25000  1.0000
  La  La2       1.0  0.50000  0.91200  0.25000  1.0000
  La  La3       1.0  0.00000  0.91200  0.75000  1.0000
  La  La4       1.0  0.50000  0.08760  0.75000  1.0000
  O   O1        1.0  0.25000  0.00000  0.99300  1.0000
  O   O2        1.0  0.75000  0.00000  0.50700  1.0000
  O   O3        1.0  0.75000  0.00000  0.00727  1.0000
  O   O4        1.0  0.25000  0.00000  0.49300  1.0000
  O   O5        1.0  0.00000  0.59600  0.25000  1.0000
  O   O6        1.0  0.50000  0.40400  0.25000  1.0000
  O   O7        1.0  0.00000  0.40400  0.75000  1.0000
  O   O8        1.0  0.50000  0.59600  0.75000  1.0000
  O   O9        1.0  0.35500  0.76400  0.09910  1.0000
  O   O10       1.0  0.14500  0.23600  0.09910  1.0000
  O   O11       1.0  0.85500  0.23600  0.40100  1.0000
  O   O12       1.0  0.64500  0.76400  0.40100  1.0000
  O   O13       1.0  0.64500  0.23600  0.90100  1.0000
  O   O14       1.0  0.85500  0.76400  0.90100  1.0000
  O   O15       1.0  0.14500  0.76400  0.59900  1.0000
  O   O16       1.0  0.35500  0.23600  0.59900  1.0000
