data_image0
_chemical_formula_structural       B4CeO12Sc3
_chemical_formula_sum              "B4 Ce1 O12 Sc3"
_cell_length_a       6.22607
_cell_length_b       6.22607
_cell_length_c       6.22607
_cell_angle_alpha    104.077
_cell_angle_beta     104.077
_cell_angle_gamma    104.077

_space_group_name_H-M_alt    "P 1"
_space_group_IT_number       1

loop_
  _space_group_symop_operation_xyz
  'x, y, z'

loop_
  _atom_site_type_symbol
  _atom_site_label
  _atom_site_symmetry_multiplicity
  _atom_site_fract_x
  _atom_site_fract_y
  _atom_site_fract_z
  _atom_site_occupancy
  B   B1        1.0  0.50000  0.05120  0.94900  1.0000
  B   B2        1.0  0.94900  0.50000  0.05120  1.0000
  B   B3        1.0  0.05120  0.94900  0.50000  1.0000
  B   B4        1.0  0.50000  0.50000  0.50000  1.0000
  Ce  Ce1       1.0  0.00000  0.00000  0.00000  1.0000
  O   O1        1.0  0.50000  0.64000  0.36000  1.0000
  O   O2        1.0  0.36000  0.50000  0.64000  1.0000
  O   O3        1.0  0.64000  0.36000  0.50000  1.0000
  O   O4        1.0  0.50000  0.91100  0.08890  1.0000
  O   O5        1.0  0.08890  0.50000  0.91100  1.0000
  O   O6        1.0  0.91100  0.08890  0.50000  1.0000
  O   O7        1.0  0.62700  0.03260  0.79800  1.0000
  O   O8        1.0  0.79800  0.62700  0.03260  1.0000
  O   O9        1.0  0.03260  0.79800  0.62700  1.0000
  O   O10       1.0  0.96700  0.37300  0.20200  1.0000
  O   O11       1.0  0.37300  0.20200  0.96700  1.0000
  O   O12       1.0  0.20200  0.96700  0.37300  1.0000
  Sc  Sc1       1.0  0.45200  0.54800  0.00000  1.0000
  Sc  Sc2       1.0  0.00000  0.45200  0.54800  1.0000
  Sc  Sc3       1.0  0.54800  0.00000  0.45200  1.0000
