data_image0
_chemical_formula_structural       Bi6O20P4Pb
_chemical_formula_sum              "Bi6 O20 P4 Pb1"
_cell_length_a       8.98823
_cell_length_b       7.46443
_cell_length_c       6.87263
_cell_angle_alpha    112.132
_cell_angle_beta     93.2012
_cell_angle_gamma    107.537

_space_group_name_H-M_alt    "P 1"
_space_group_IT_number       1

loop_
  _space_group_symop_operation_xyz
  'x, y, z'

loop_
  _atom_site_type_symbol
  _atom_site_label
  _atom_site_symmetry_multiplicity
  _atom_site_fract_x
  _atom_site_fract_y
  _atom_site_fract_z
  _atom_site_occupancy
  Bi  Bi1       1.0  0.08530  0.78100  0.43400  1.0000
  Bi  Bi2       1.0  0.91500  0.21900  0.56600  1.0000
  Bi  Bi3       1.0  0.49900  0.12700  0.32600  1.0000
  Bi  Bi4       1.0  0.50100  0.87300  0.67400  1.0000
  Bi  Bi5       1.0  0.33500  0.30500  0.81600  1.0000
  Bi  Bi6       1.0  0.66500  0.69500  0.18400  1.0000
  O   O1        1.0  0.84400  0.50700  0.12700  1.0000
  O   O2        1.0  0.15600  0.49300  0.87300  1.0000
  O   O3        1.0  0.76300  0.19400  0.22500  1.0000
  O   O4        1.0  0.23700  0.80600  0.77500  1.0000
  O   O5        1.0  0.71000  0.74400  0.86300  1.0000
  O   O6        1.0  0.29000  0.25600  0.13700  1.0000
  O   O7        1.0  0.57400  0.21800  0.97000  1.0000
  O   O8        1.0  0.42600  0.78200  0.03000  1.0000
  O   O9        1.0  0.64400  0.59600  0.46200  1.0000
  O   O10       1.0  0.35600  0.40400  0.53800  1.0000
  O   O11       1.0  0.63800  0.97000  0.44100  1.0000
  O   O12       1.0  0.36200  0.02990  0.55900  1.0000
  O   O13       1.0  0.91400  0.64400  0.65200  1.0000
  O   O14       1.0  0.08560  0.35600  0.34800  1.0000
  O   O15       1.0  0.66700  0.36800  0.64700  1.0000
  O   O16       1.0  0.33300  0.63200  0.35300  1.0000
  O   O17       1.0  0.90500  0.91000  0.31700  1.0000
  O   O18       1.0  0.09550  0.09040  0.68300  1.0000
  O   O19       1.0  0.82100  0.15000  0.85900  1.0000
  O   O20       1.0  0.17900  0.85000  0.14100  1.0000
  P   P1        1.0  0.73500  0.58800  0.65400  1.0000
  P   P2        1.0  0.26500  0.41200  0.34600  1.0000
  P   P3        1.0  0.75500  0.27400  0.04730  1.0000
  P   P4        1.0  0.24500  0.72600  0.95300  1.0000
  Pb  Pb1       1.0  0.00000  0.00000  0.00000  1.0000
