data_image0
_chemical_formula_structural       B6Co19Pr5
_chemical_formula_sum              "B6 Co19 Pr5"
_cell_length_a       5.13747
_cell_length_b       5.13772
_cell_length_c       16.6151
_cell_angle_alpha    89.9998
_cell_angle_beta     90.0001
_cell_angle_gamma    120.003

_space_group_name_H-M_alt    "P 1"
_space_group_IT_number       1

loop_
  _space_group_symop_operation_xyz
  'x, y, z'

loop_
  _atom_site_type_symbol
  _atom_site_label
  _atom_site_symmetry_multiplicity
  _atom_site_fract_x
  _atom_site_fract_y
  _atom_site_fract_z
  _atom_site_occupancy
  B   B1        1.0  0.33300  0.66700  0.08820  1.0000
  B   B2        1.0  0.66700  0.33300  0.08830  1.0000
  B   B3        1.0  0.66700  0.33300  0.91200  1.0000
  B   B4        1.0  0.33300  0.66700  0.91200  1.0000
  B   B5        1.0  0.33300  0.66700  0.50000  1.0000
  B   B6        1.0  0.66700  0.33300  0.50000  1.0000
  Co  Co1       1.0  0.50000  0.00000  0.41400  1.0000
  Co  Co2       1.0  0.00003  0.50000  0.41400  1.0000
  Co  Co3       1.0  0.50000  0.50000  0.41400  1.0000
  Co  Co4       1.0  0.50000  0.00003  0.58600  1.0000
  Co  Co5       1.0  0.50000  0.50000  0.58600  1.0000
  Co  Co6       1.0  0.00000  0.50000  0.58600  1.0000
  Co  Co7       1.0  0.50000  0.00000  0.17400  1.0000
  Co  Co8       1.0  0.00001  0.50000  0.17400  1.0000
  Co  Co9       1.0  0.50000  0.50000  0.17400  1.0000
  Co  Co10      1.0  0.50000  0.00005  0.82600  1.0000
  Co  Co11      1.0  0.50000  0.50000  0.82600  1.0000
  Co  Co12      1.0  0.00000  0.50000  0.82600  1.0000
  Co  Co13      1.0  0.33300  0.66700  0.29400  1.0000
  Co  Co14      1.0  0.66700  0.33300  0.29400  1.0000
  Co  Co15      1.0  0.66700  0.33300  0.70600  1.0000
  Co  Co16      1.0  0.33300  0.66700  0.70600  1.0000
  Co  Co17      1.0  0.50000  0.00003  0.00001  1.0000
  Co  Co18      1.0  0.00000  0.50000  0.00000  1.0000
  Co  Co19      1.0  0.50000  0.50000  0.00000  1.0000
  Pr  Pr1       1.0  0.00000  0.00000  0.50000  1.0000
  Pr  Pr2       1.0  0.00000  0.00000  0.09360  1.0000
  Pr  Pr3       1.0  0.00000  0.00000  0.90700  1.0000
  Pr  Pr4       1.0  0.00000  1.00000  0.29500  1.0000
  Pr  Pr5       1.0  0.00011  0.00011  0.70500  1.0000
