data_image0
_chemical_formula_structural       Ca4Fe4O12
_chemical_formula_sum              "Ca4 Fe4 O12"
_cell_length_a       5.3125
_cell_length_b       7.47339
_cell_length_c       5.27952
_cell_angle_alpha    89.9995
_cell_angle_beta     90.0001
_cell_angle_gamma    90.0004

_space_group_name_H-M_alt    "P 1"
_space_group_IT_number       1

loop_
  _space_group_symop_operation_xyz
  'x, y, z'

loop_
  _atom_site_type_symbol
  _atom_site_label
  _atom_site_symmetry_multiplicity
  _atom_site_fract_x
  _atom_site_fract_y
  _atom_site_fract_z
  _atom_site_occupancy
  Ca  Ca1       1.0  0.04010  0.25000  0.99300  1.0000
  Ca  Ca2       1.0  0.46000  0.75000  0.49300  1.0000
  Ca  Ca3       1.0  0.54000  0.25000  0.50700  1.0000
  Ca  Ca4       1.0  0.96000  0.75000  0.00736  1.0000
  Fe  Fe1       1.0  0.00000  0.00000  0.50000  1.0000
  Fe  Fe2       1.0  0.50000  0.00000  0.00000  1.0000
  Fe  Fe3       1.0  0.50000  0.50000  1.00000  1.0000
  Fe  Fe4       1.0  0.00000  0.50000  0.50000  1.0000
  O   O1        1.0  0.48700  0.25000  0.07180  1.0000
  O   O2        1.0  0.01300  0.75000  0.57200  1.0000
  O   O3        1.0  0.98700  0.25000  0.42800  1.0000
  O   O4        1.0  0.51300  0.75000  0.92800  1.0000
  O   O5        1.0  0.28900  0.03720  0.71100  1.0000
  O   O6        1.0  0.21100  0.96300  0.21100  1.0000
  O   O7        1.0  0.78900  0.46300  0.79000  1.0000
  O   O8        1.0  0.71100  0.53700  0.28900  1.0000
  O   O9        1.0  0.71100  0.96300  0.28900  1.0000
  O   O10       1.0  0.78900  0.03720  0.78900  1.0000
  O   O11       1.0  0.21100  0.53700  0.21100  1.0000
  O   O12       1.0  0.28900  0.46300  0.71100  1.0000
