data_image0
_chemical_formula_structural       CrF6Rb
_chemical_formula_sum              "Cr1 F6 Rb1"
_cell_length_a       4.68063
_cell_length_b       4.68134
_cell_length_c       4.68081
_cell_angle_alpha    97.4537
_cell_angle_beta     97.4625
_cell_angle_gamma    97.4552

_space_group_name_H-M_alt    "P 1"
_space_group_IT_number       1

loop_
  _space_group_symop_operation_xyz
  'x, y, z'

loop_
  _atom_site_type_symbol
  _atom_site_label
  _atom_site_symmetry_multiplicity
  _atom_site_fract_x
  _atom_site_fract_y
  _atom_site_fract_z
  _atom_site_occupancy
  Cr  Cr1       1.0  0.50000  0.50000  0.50000  1.0000
  F   F1        1.0  0.57600  0.30500  0.17300  1.0000
  F   F2        1.0  0.17300  0.57600  0.30500  1.0000
  F   F3        1.0  0.69500  0.82700  0.42400  1.0000
  F   F4        1.0  0.30500  0.17300  0.57600  1.0000
  F   F5        1.0  0.82700  0.42400  0.69500  1.0000
  F   F6        1.0  0.42400  0.69500  0.82700  1.0000
  Rb  Rb1       1.0  0.00000  0.00000  0.00000  1.0000
