data_image0
_chemical_formula_structural       K6Mo4O21U2
_chemical_formula_sum              "K6 Mo4 O21 U2"
_cell_length_a       7.47342
_cell_length_b       7.74081
_cell_length_c       9.85773
_cell_angle_alpha    84.8845
_cell_angle_beta     75.805
_cell_angle_gamma    80.2994

_space_group_name_H-M_alt    "P 1"
_space_group_IT_number       1

loop_
  _space_group_symop_operation_xyz
  'x, y, z'

loop_
  _atom_site_type_symbol
  _atom_site_label
  _atom_site_symmetry_multiplicity
  _atom_site_fract_x
  _atom_site_fract_y
  _atom_site_fract_z
  _atom_site_occupancy
  K   K1        1.0  0.58500  0.07150  0.70700  1.0000
  K   K2        1.0  0.41500  0.92900  0.29300  1.0000
  K   K3        1.0  0.24700  0.63300  0.66000  1.0000
  K   K4        1.0  0.75300  0.36700  0.34000  1.0000
  K   K5        1.0  0.81500  0.67600  0.05890  1.0000
  K   K6        1.0  0.18500  0.32400  0.94100  1.0000
  Mo  Mo1       1.0  0.85300  0.83000  0.40900  1.0000
  Mo  Mo2       1.0  0.14700  0.17000  0.59100  1.0000
  Mo  Mo3       1.0  0.35200  0.77500  0.97100  1.0000
  Mo  Mo4       1.0  0.64800  0.22500  0.02890  1.0000
  O   O1        1.0  0.00000  0.50000  0.50000  1.0000
  O   O2        1.0  0.75100  0.04910  0.38600  1.0000
  O   O3        1.0  0.24900  0.95100  0.61400  1.0000
  O   O4        1.0  0.30300  0.00179  0.99800  1.0000
  O   O5        1.0  0.69700  0.99800  0.00171  1.0000
  O   O6        1.0  0.15700  0.70100  0.93900  1.0000
  O   O7        1.0  0.84300  0.29900  0.06080  1.0000
  O   O8        1.0  0.09720  0.79300  0.31400  1.0000
  O   O9        1.0  0.90300  0.20700  0.68600  1.0000
  O   O10       1.0  0.53700  0.73400  0.81700  1.0000
  O   O11       1.0  0.46300  0.26600  0.18300  1.0000
  O   O12       1.0  0.81100  0.80200  0.59900  1.0000
  O   O13       1.0  0.18900  0.19800  0.40100  1.0000
  O   O14       1.0  0.72100  0.71200  0.33500  1.0000
  O   O15       1.0  0.27900  0.28800  0.66500  1.0000
  O   O16       1.0  0.42400  0.65100  0.12000  1.0000
  O   O17       1.0  0.57600  0.34900  0.88000  1.0000
  O   O18       1.0  0.39000  0.52100  0.40500  1.0000
  O   O19       1.0  0.61000  0.47900  0.59500  1.0000
  O   O20       1.0  0.07480  0.45800  0.19300  1.0000
  O   O21       1.0  0.92500  0.54200  0.80700  1.0000
  U   U1        1.0  0.22900  0.48700  0.30400  1.0000
  U   U2        1.0  0.77100  0.51300  0.69600  1.0000
