data_image0
_chemical_formula_structural       H16Li8N8O24S8
_chemical_formula_sum              "H16 Li8 N8 O24 S8"
_cell_length_a       14.7846
_cell_length_b       4.45391
_cell_length_c       7.63119
_cell_angle_alpha    90
_cell_angle_beta     90
_cell_angle_gamma    90

_space_group_name_H-M_alt    "P 1"
_space_group_IT_number       1

loop_
  _space_group_symop_operation_xyz
  'x, y, z'

loop_
  _atom_site_type_symbol
  _atom_site_label
  _atom_site_symmetry_multiplicity
  _atom_site_fract_x
  _atom_site_fract_y
  _atom_site_fract_z
  _atom_site_occupancy
  H   H1        1.0  0.22100  0.98100  0.71800  1.0000
  H   H2        1.0  0.77900  0.01920  0.21800  1.0000
  H   H3        1.0  0.27900  0.98100  0.21800  1.0000
  H   H4        1.0  0.72100  0.01920  0.71800  1.0000
  H   H5        1.0  0.28700  0.99200  0.90100  1.0000
  H   H6        1.0  0.71300  0.00821  0.40100  1.0000
  H   H7        1.0  0.21300  0.99200  0.40100  1.0000
  H   H8        1.0  0.78700  0.00821  0.90100  1.0000
  H   H9        1.0  0.46300  0.51700  0.86700  1.0000
  H   H10       1.0  0.53700  0.48300  0.36700  1.0000
  H   H11       1.0  0.03690  0.51700  0.36700  1.0000
  H   H12       1.0  0.96300  0.48300  0.86700  1.0000
  H   H13       1.0  0.52800  0.48200  0.04640  1.0000
  H   H14       1.0  0.47200  0.51800  0.54600  1.0000
  H   H15       1.0  0.97200  0.48200  0.54600  1.0000
  H   H16       1.0  0.02760  0.51800  0.04640  1.0000
  Li  Li1       1.0  0.44500  0.96400  0.32100  1.0000
  Li  Li2       1.0  0.55500  0.03640  0.82100  1.0000
  Li  Li3       1.0  0.05470  0.96400  0.82100  1.0000
  Li  Li4       1.0  0.94500  0.03640  0.32100  1.0000
  Li  Li5       1.0  0.31000  0.50500  0.44900  1.0000
  Li  Li6       1.0  0.69000  0.49500  0.94900  1.0000
  Li  Li7       1.0  0.19000  0.50500  0.94900  1.0000
  Li  Li8       1.0  0.81000  0.49500  0.44900  1.0000
  N   N1        1.0  0.47100  0.39800  0.98300  1.0000
  N   N2        1.0  0.52900  0.60200  0.48300  1.0000
  N   N3        1.0  0.02910  0.39800  0.48300  1.0000
  N   N4        1.0  0.97100  0.60200  0.98300  1.0000
  N   N5        1.0  0.28000  0.91200  0.77500  1.0000
  N   N6        1.0  0.72000  0.08770  0.27500  1.0000
  N   N7        1.0  0.22000  0.91200  0.27500  1.0000
  N   N8        1.0  0.78000  0.08770  0.77500  1.0000
  O   O1        1.0  0.30500  0.38100  0.00802  1.0000
  O   O2        1.0  0.69500  0.61900  0.50800  1.0000
  O   O3        1.0  0.19500  0.38100  0.50800  1.0000
  O   O4        1.0  0.80500  0.61900  0.00802  1.0000
  O   O5        1.0  0.39300  0.36800  0.27300  1.0000
  O   O6        1.0  0.60700  0.63200  0.77300  1.0000
  O   O7        1.0  0.10700  0.36800  0.77300  1.0000
  O   O8        1.0  0.89300  0.63200  0.27300  1.0000
  O   O9        1.0  0.38300  0.82600  0.11100  1.0000
  O   O10       1.0  0.61700  0.17400  0.61100  1.0000
  O   O11       1.0  0.11700  0.82600  0.61100  1.0000
  O   O12       1.0  0.88300  0.17400  0.11100  1.0000
  O   O13       1.0  0.35300  0.89300  0.49100  1.0000
  O   O14       1.0  0.64700  0.10700  0.99100  1.0000
  O   O15       1.0  0.14700  0.89300  0.99100  1.0000
  O   O16       1.0  0.85300  0.10700  0.49100  1.0000
  O   O17       1.0  0.44400  0.89100  0.75800  1.0000
  O   O18       1.0  0.55600  0.10900  0.25800  1.0000
  O   O19       1.0  0.05630  0.89100  0.25800  1.0000
  O   O20       1.0  0.94400  0.10900  0.75800  1.0000
  O   O21       1.0  0.37500  0.34600  0.65200  1.0000
  O   O22       1.0  0.62500  0.65400  0.15200  1.0000
  O   O23       1.0  0.12500  0.34600  0.15200  1.0000
  O   O24       1.0  0.87500  0.65400  0.65200  1.0000
  S   S1        1.0  0.38400  0.49800  0.09730  1.0000
  S   S2        1.0  0.61600  0.50200  0.59700  1.0000
  S   S3        1.0  0.11600  0.49800  0.59700  1.0000
  S   S4        1.0  0.88400  0.50200  0.09730  1.0000
  S   S5        1.0  0.36700  0.01940  0.66700  1.0000
  S   S6        1.0  0.63300  0.98100  0.16700  1.0000
  S   S7        1.0  0.13300  0.01940  0.16700  1.0000
  S   S8        1.0  0.86700  0.98100  0.66700  1.0000
