data_image0
_chemical_formula_structural       Fe4Mo8O14
_chemical_formula_sum              "Fe4 Mo8 O14"
_cell_length_a       9.46091
_cell_length_b       9.46091
_cell_length_c       9.46091
_cell_angle_alpha    143.271
_cell_angle_beta     145.051
_cell_angle_gamma    51.6003

_space_group_name_H-M_alt    "P 1"
_space_group_IT_number       1

loop_
  _space_group_symop_operation_xyz
  'x, y, z'

loop_
  _atom_site_type_symbol
  _atom_site_label
  _atom_site_symmetry_multiplicity
  _atom_site_fract_x
  _atom_site_fract_y
  _atom_site_fract_z
  _atom_site_occupancy
  Fe  Fe1       1.0  0.00000  0.00000  0.50000  1.0000
  Fe  Fe2       1.0  0.00000  0.50000  0.00000  1.0000
  Fe  Fe3       1.0  0.55000  0.30000  0.25000  1.0000
  Fe  Fe4       1.0  0.45000  0.70000  0.75000  1.0000
  Mo  Mo1       1.0  0.24500  0.22900  0.48400  1.0000
  Mo  Mo2       1.0  0.24500  0.76100  0.01610  1.0000
  Mo  Mo3       1.0  0.75500  0.23900  0.98400  1.0000
  Mo  Mo4       1.0  0.75500  0.77100  0.51600  1.0000
  Mo  Mo5       1.0  0.13400  0.11200  0.02180  1.0000
  Mo  Mo6       1.0  0.59000  0.11200  0.47800  1.0000
  Mo  Mo7       1.0  0.86600  0.88800  0.97800  1.0000
  Mo  Mo8       1.0  0.41000  0.88800  0.52200  1.0000
  O   O1        1.0  0.75000  0.23300  0.51700  1.0000
  O   O2        1.0  0.21600  0.23300  0.98300  1.0000
  O   O3        1.0  0.25000  0.76700  0.48300  1.0000
  O   O4        1.0  0.78400  0.76700  0.01700  1.0000
  O   O5        1.0  0.12600  0.11200  0.48600  1.0000
  O   O6        1.0  0.12600  0.64000  0.01380  1.0000
  O   O7        1.0  0.87400  0.36000  0.98600  1.0000
  O   O8        1.0  0.87400  0.88800  0.51400  1.0000
  O   O9        1.0  0.36700  0.38300  0.51700  1.0000
  O   O10       1.0  0.36700  0.85000  0.98300  1.0000
  O   O11       1.0  0.63300  0.15000  0.01670  1.0000
  O   O12       1.0  0.63300  0.61700  0.48300  1.0000
  O   O13       1.0  0.50000  0.50000  0.00000  1.0000
  O   O14       1.0  1.00000  0.50000  0.50000  1.0000
