data_image0
_chemical_formula_structural       B4Co21Nd5
_chemical_formula_sum              "B4 Co21 Nd5"
_cell_length_a       5.0852
_cell_length_b       5.08551
_cell_length_c       17.6231
_cell_angle_alpha    89.9993
_cell_angle_beta     90.0013
_cell_angle_gamma    120.005

_space_group_name_H-M_alt    "P 1"
_space_group_IT_number       1

loop_
  _space_group_symop_operation_xyz
  'x, y, z'

loop_
  _atom_site_type_symbol
  _atom_site_label
  _atom_site_symmetry_multiplicity
  _atom_site_fract_x
  _atom_site_fract_y
  _atom_site_fract_z
  _atom_site_occupancy
  B   B1        1.0  0.66700  0.33300  0.30500  1.0000
  B   B2        1.0  0.33300  0.66700  0.30500  1.0000
  B   B3        1.0  0.33300  0.66700  0.69500  1.0000
  B   B4        1.0  0.66700  0.33300  0.69500  1.0000
  Co  Co1       1.0  0.66700  0.33300  0.50000  1.0000
  Co  Co2       1.0  0.33300  0.66700  0.50000  1.0000
  Co  Co3       1.0  0.50000  0.00001  0.22200  1.0000
  Co  Co4       1.0  0.00000  0.50000  0.22200  1.0000
  Co  Co5       1.0  0.50000  0.50000  0.22200  1.0000
  Co  Co6       1.0  0.50000  0.00000  0.77800  1.0000
  Co  Co7       1.0  0.50000  0.50000  0.77800  1.0000
  Co  Co8       1.0  0.00010  0.50000  0.77800  1.0000
  Co  Co9       1.0  0.66700  0.33300  0.11000  1.0000
  Co  Co10      1.0  0.33300  0.66700  0.11000  1.0000
  Co  Co11      1.0  0.33300  0.66700  0.89000  1.0000
  Co  Co12      1.0  0.66700  0.33300  0.89000  1.0000
  Co  Co13      1.0  0.50000  0.00000  0.00000  1.0000
  Co  Co14      1.0  0.00000  0.50000  0.00000  1.0000
  Co  Co15      1.0  0.50000  0.50000  0.00000  1.0000
  Co  Co16      1.0  0.50000  0.00001  0.38700  1.0000
  Co  Co17      1.0  0.00000  0.50000  0.38700  1.0000
  Co  Co18      1.0  0.50000  0.50000  0.38700  1.0000
  Co  Co19      1.0  0.50000  0.00000  0.61300  1.0000
  Co  Co20      1.0  0.50000  0.50000  0.61300  1.0000
  Co  Co21      1.0  0.00003  0.50000  0.61300  1.0000
  Nd  Nd1       1.0  0.00000  0.00000  0.50000  1.0000
  Nd  Nd2       1.0  0.00000  0.00001  0.30400  1.0000
  Nd  Nd3       1.0  0.00006  0.00000  0.69600  1.0000
  Nd  Nd4       1.0  0.00000  0.00000  0.10700  1.0000
  Nd  Nd5       1.0  0.00003  0.00001  0.89300  1.0000
