data_image0
_chemical_formula_structural       B32Li8O56Rb8
_chemical_formula_sum              "B32 Li8 O56 Rb8"
_cell_length_a       8.26495
_cell_length_b       9.98625
_cell_length_c       12.6653
_cell_angle_alpha    90
_cell_angle_beta     90
_cell_angle_gamma    90

_space_group_name_H-M_alt    "P 1"
_space_group_IT_number       1

loop_
  _space_group_symop_operation_xyz
  'x, y, z'

loop_
  _atom_site_type_symbol
  _atom_site_label
  _atom_site_symmetry_multiplicity
  _atom_site_fract_x
  _atom_site_fract_y
  _atom_site_fract_z
  _atom_site_occupancy
  B   B1        1.0  0.45700  0.64800  0.46200  1.0000
  B   B2        1.0  0.04270  0.35200  0.96200  1.0000
  B   B3        1.0  0.95700  0.85200  0.53800  1.0000
  B   B4        1.0  0.54300  0.14800  0.03750  1.0000
  B   B5        1.0  0.44100  0.78000  0.29500  1.0000
  B   B6        1.0  0.05920  0.22000  0.79500  1.0000
  B   B7        1.0  0.94100  0.72000  0.70500  1.0000
  B   B8        1.0  0.55900  0.28000  0.20500  1.0000
  B   B9        1.0  0.27200  0.58000  0.31700  1.0000
  B   B10       1.0  0.22800  0.42000  0.81700  1.0000
  B   B11       1.0  0.77200  0.92000  0.68300  1.0000
  B   B12       1.0  0.72800  0.08010  0.18300  1.0000
  B   B13       1.0  0.08320  0.38800  0.33000  1.0000
  B   B14       1.0  0.41700  0.61200  0.83000  1.0000
  B   B15       1.0  0.58300  0.11200  0.67000  1.0000
  B   B16       1.0  0.91700  0.88800  0.17000  1.0000
  B   B17       1.0  0.87800  0.37700  0.47600  1.0000
  B   B18       1.0  0.62200  0.62300  0.97600  1.0000
  B   B19       1.0  0.37800  0.12300  0.52400  1.0000
  B   B20       1.0  0.12200  0.87700  0.02450  1.0000
  B   B21       1.0  0.69900  0.55000  0.55100  1.0000
  B   B22       1.0  0.80100  0.45000  0.05080  1.0000
  B   B23       1.0  0.19900  0.95000  0.44900  1.0000
  B   B24       1.0  0.30100  0.05010  0.94900  1.0000
  B   B25       1.0  0.51000  0.68200  0.65200  1.0000
  B   B26       1.0  0.99000  0.31800  0.15200  1.0000
  B   B27       1.0  0.00972  0.81800  0.34800  1.0000
  B   B28       1.0  0.49000  0.18200  0.84800  1.0000
  B   B29       1.0  0.14200  0.26400  0.49000  1.0000
  B   B30       1.0  0.35800  0.73600  0.99000  1.0000
  B   B31       1.0  0.64200  0.23600  0.51000  1.0000
  B   B32       1.0  0.85800  0.76400  0.00951  1.0000
  Li  Li1       1.0  0.44200  0.38400  0.39900  1.0000
  Li  Li2       1.0  0.05760  0.61600  0.89900  1.0000
  Li  Li3       1.0  0.94200  0.11600  0.60100  1.0000
  Li  Li4       1.0  0.55800  0.88400  0.10100  1.0000
  Li  Li5       1.0  0.78700  0.32600  0.29900  1.0000
  Li  Li6       1.0  0.71300  0.67400  0.79900  1.0000
  Li  Li7       1.0  0.28700  0.17400  0.70100  1.0000
  Li  Li8       1.0  0.21300  0.82600  0.20100  1.0000
  O   O1        1.0  0.50200  0.75700  0.39400  1.0000
  O   O2        1.0  0.99800  0.24300  0.89400  1.0000
  O   O3        1.0  0.00247  0.74300  0.60600  1.0000
  O   O4        1.0  0.49800  0.25700  0.10600  1.0000
  O   O5        1.0  0.32200  0.57000  0.41900  1.0000
  O   O6        1.0  0.17800  0.43000  0.91900  1.0000
  O   O7        1.0  0.82200  0.93000  0.58100  1.0000
  O   O8        1.0  0.67800  0.06950  0.08060  1.0000
  O   O9        1.0  0.59200  0.55000  0.47000  1.0000
  O   O10       1.0  0.90800  0.45000  0.97000  1.0000
  O   O11       1.0  0.09150  0.95000  0.53000  1.0000
  O   O12       1.0  0.40800  0.05030  0.03020  1.0000
  O   O13       1.0  0.41200  0.70000  0.56800  1.0000
  O   O14       1.0  0.08790  0.30000  0.06750  1.0000
  O   O15       1.0  0.91200  0.80000  0.43200  1.0000
  O   O16       1.0  0.58800  0.20000  0.93200  1.0000
  O   O17       1.0  0.66200  0.62300  0.64200  1.0000
  O   O18       1.0  0.83800  0.37700  0.14200  1.0000
  O   O19       1.0  0.16200  0.87700  0.35800  1.0000
  O   O20       1.0  0.33800  0.12300  0.85800  1.0000
  O   O21       1.0  0.83200  0.47300  0.55700  1.0000
  O   O22       1.0  0.66800  0.52700  0.05700  1.0000
  O   O23       1.0  0.33200  0.02660  0.44300  1.0000
  O   O24       1.0  0.16800  0.97300  0.94300  1.0000
  O   O25       1.0  0.94700  0.44300  0.38500  1.0000
  O   O26       1.0  0.55300  0.55700  0.88500  1.0000
  O   O27       1.0  0.44700  0.05670  0.61500  1.0000
  O   O28       1.0  0.05330  0.94300  0.11500  1.0000
  O   O29       1.0  0.73700  0.30300  0.44100  1.0000
  O   O30       1.0  0.76300  0.69700  0.94100  1.0000
  O   O31       1.0  0.23700  0.19700  0.55900  1.0000
  O   O32       1.0  0.26300  0.80300  0.05920  1.0000
  O   O33       1.0  0.98800  0.28100  0.52500  1.0000
  O   O34       1.0  0.51200  0.71900  0.02490  1.0000
  O   O35       1.0  0.48800  0.21900  0.47500  1.0000
  O   O36       1.0  0.01200  0.78100  0.97500  1.0000
  O   O37       1.0  0.19900  0.31800  0.39900  1.0000
  O   O38       1.0  0.30100  0.68200  0.89900  1.0000
  O   O39       1.0  0.69900  0.18200  0.60100  1.0000
  O   O40       1.0  0.80100  0.81800  0.10100  1.0000
  O   O41       1.0  0.02820  0.28400  0.25300  1.0000
  O   O42       1.0  0.47200  0.71600  0.75300  1.0000
  O   O43       1.0  0.52800  0.21600  0.74700  1.0000
  O   O44       1.0  0.97200  0.78400  0.24700  1.0000
  O   O45       1.0  0.16300  0.49600  0.27300  1.0000
  O   O46       1.0  0.33700  0.50400  0.77300  1.0000
  O   O47       1.0  0.66300  0.00366  0.72700  1.0000
  O   O48       1.0  0.83700  0.99600  0.22700  1.0000
  O   O49       1.0  0.33800  0.67800  0.25300  1.0000
  O   O50       1.0  0.16200  0.32200  0.75300  1.0000
  O   O51       1.0  0.83800  0.82200  0.74700  1.0000
  O   O52       1.0  0.66200  0.17800  0.24700  1.0000
  O   O53       1.0  0.47300  0.88500  0.23600  1.0000
  O   O54       1.0  0.02670  0.11500  0.73600  1.0000
  O   O55       1.0  0.97300  0.61500  0.76400  1.0000
  O   O56       1.0  0.52700  0.38500  0.26400  1.0000
  Rb  Rb1       1.0  0.15800  0.51700  0.59400  1.0000
  Rb  Rb2       1.0  0.34200  0.48300  0.09400  1.0000
  Rb  Rb3       1.0  0.65800  0.98300  0.40600  1.0000
  Rb  Rb4       1.0  0.84200  0.01660  0.90600  1.0000
  Rb  Rb5       1.0  0.72900  0.61000  0.26800  1.0000
  Rb  Rb6       1.0  0.77100  0.39000  0.76800  1.0000
  Rb  Rb7       1.0  0.22900  0.89000  0.73200  1.0000
  Rb  Rb8       1.0  0.27100  0.11000  0.23200  1.0000
