data_image0
_chemical_formula_structural       I4O20Rb2U3
_chemical_formula_sum              "I4 O20 Rb2 U3"
_cell_length_a       6.92238
_cell_length_b       7.32909
_cell_length_c       8.72584
_cell_angle_alpha    91.4126
_cell_angle_beta     104.436
_cell_angle_gamma    93.9708

_space_group_name_H-M_alt    "P 1"
_space_group_IT_number       1

loop_
  _space_group_symop_operation_xyz
  'x, y, z'

loop_
  _atom_site_type_symbol
  _atom_site_label
  _atom_site_symmetry_multiplicity
  _atom_site_fract_x
  _atom_site_fract_y
  _atom_site_fract_z
  _atom_site_occupancy
  I   I1        1.0  0.86500  0.18800  0.59800  1.0000
  I   I2        1.0  0.13500  0.81200  0.40200  1.0000
  I   I3        1.0  0.30100  0.35000  0.41200  1.0000
  I   I4        1.0  0.69900  0.65000  0.58800  1.0000
  O   O1        1.0  0.07090  0.24300  0.04440  1.0000
  O   O2        1.0  0.92900  0.75700  0.95600  1.0000
  O   O3        1.0  0.41500  0.83900  0.72700  1.0000
  O   O4        1.0  0.58500  0.16100  0.27300  1.0000
  O   O5        1.0  0.48900  0.31500  0.86300  1.0000
  O   O6        1.0  0.51100  0.68500  0.13700  1.0000
  O   O7        1.0  0.69500  0.03450  0.01870  1.0000
  O   O8        1.0  0.30500  0.96600  0.98100  1.0000
  O   O9        1.0  0.42800  0.17000  0.53800  1.0000
  O   O10       1.0  0.57200  0.83000  0.46200  1.0000
  O   O11       1.0  0.35200  0.52700  0.57300  1.0000
  O   O12       1.0  0.64800  0.47300  0.42700  1.0000
  O   O13       1.0  0.03890  0.27800  0.41700  1.0000
  O   O14       1.0  0.96100  0.72200  0.58300  1.0000
  O   O15       1.0  0.86400  0.39400  0.71800  1.0000
  O   O16       1.0  0.13600  0.60600  0.28200  1.0000
  O   O17       1.0  0.11100  0.11900  0.70300  1.0000
  O   O18       1.0  0.88900  0.88100  0.29700  1.0000
  O   O19       1.0  0.77000  0.03770  0.74200  1.0000
  O   O20       1.0  0.23000  0.96200  0.25800  1.0000
  Rb  Rb1       1.0  0.22400  0.56500  0.87000  1.0000
  Rb  Rb2       1.0  0.77600  0.43500  0.13000  1.0000
  U   U1        1.0  0.45200  0.07660  0.79600  1.0000
  U   U2        1.0  0.54800  0.92300  0.20400  1.0000
  U   U3        1.0  0.00000  0.00000  0.00000  1.0000
