data_image0
_chemical_formula_structural       B8In4Li12O24
_chemical_formula_sum              "B8 In4 Li12 O24"
_cell_length_a       5.15822
_cell_length_b       8.87073
_cell_length_c       9.65816
_cell_angle_alpha    90
_cell_angle_beta     90.3401
_cell_angle_gamma    90

_space_group_name_H-M_alt    "P 1"
_space_group_IT_number       1

loop_
  _space_group_symop_operation_xyz
  'x, y, z'

loop_
  _atom_site_type_symbol
  _atom_site_label
  _atom_site_symmetry_multiplicity
  _atom_site_fract_x
  _atom_site_fract_y
  _atom_site_fract_z
  _atom_site_occupancy
  B   B1        1.0  0.66500  0.17100  0.12200  1.0000
  B   B2        1.0  0.83500  0.67100  0.37800  1.0000
  B   B3        1.0  0.33500  0.82900  0.87800  1.0000
  B   B4        1.0  0.16500  0.32900  0.62200  1.0000
  B   B5        1.0  0.32800  0.16800  0.37200  1.0000
  B   B6        1.0  0.17200  0.66800  0.12800  1.0000
  B   B7        1.0  0.67200  0.83200  0.62800  1.0000
  B   B8        1.0  0.82800  0.33200  0.87200  1.0000
  In  In1       1.0  0.15300  0.32600  0.12300  1.0000
  In  In2       1.0  0.34700  0.82600  0.37700  1.0000
  In  In3       1.0  0.84700  0.67400  0.87700  1.0000
  In  In4       1.0  0.65300  0.17400  0.62300  1.0000
  Li  Li1       1.0  0.65900  0.52300  0.16900  1.0000
  Li  Li2       1.0  0.84100  0.02340  0.33100  1.0000
  Li  Li3       1.0  0.34100  0.47700  0.83100  1.0000
  Li  Li4       1.0  0.15900  0.97700  0.66900  1.0000
  Li  Li5       1.0  0.32400  0.48400  0.41000  1.0000
  Li  Li6       1.0  0.17600  0.98400  0.08980  1.0000
  Li  Li7       1.0  0.67600  0.51600  0.59000  1.0000
  Li  Li8       1.0  0.82400  0.01570  0.91000  1.0000
  Li  Li9       1.0  0.82300  0.34400  0.37500  1.0000
  Li  Li10      1.0  0.67700  0.84400  0.12500  1.0000
  Li  Li11      1.0  0.17700  0.65600  0.62500  1.0000
  Li  Li12      1.0  0.32300  0.15600  0.87500  1.0000
  O   O1        1.0  0.18800  0.03770  0.36900  1.0000
  O   O2        1.0  0.31200  0.53800  0.13100  1.0000
  O   O3        1.0  0.81200  0.96200  0.63100  1.0000
  O   O4        1.0  0.68800  0.46200  0.86900  1.0000
  O   O5        1.0  0.19900  0.30100  0.34300  1.0000
  O   O6        1.0  0.30100  0.80100  0.15700  1.0000
  O   O7        1.0  0.80100  0.69900  0.65700  1.0000
  O   O8        1.0  0.69900  0.19900  0.84300  1.0000
  O   O9        1.0  0.59200  0.16800  0.40200  1.0000
  O   O10       1.0  0.90800  0.66800  0.09760  1.0000
  O   O11       1.0  0.40800  0.83200  0.59800  1.0000
  O   O12       1.0  0.09180  0.33200  0.90200  1.0000
  O   O13       1.0  0.83300  0.05130  0.12100  1.0000
  O   O14       1.0  0.66700  0.55100  0.37900  1.0000
  O   O15       1.0  0.16700  0.94900  0.87900  1.0000
  O   O16       1.0  0.33300  0.44900  0.62100  1.0000
  O   O17       1.0  0.75000  0.31600  0.15400  1.0000
  O   O18       1.0  0.75000  0.81600  0.34600  1.0000
  O   O19       1.0  0.25000  0.68400  0.84600  1.0000
  O   O20       1.0  0.25000  0.18400  0.65400  1.0000
  O   O21       1.0  0.40600  0.14800  0.09050  1.0000
  O   O22       1.0  0.09370  0.64800  0.41000  1.0000
  O   O23       1.0  0.59400  0.85200  0.91000  1.0000
  O   O24       1.0  0.90600  0.35200  0.59000  1.0000
