data_image0
_chemical_formula_structural       B8Gd4Li12O24
_chemical_formula_sum              "B8 Gd4 Li12 O24"
_cell_length_a       8.64852
_cell_length_b       6.21684
_cell_length_c       9.89169
_cell_angle_alpha    90
_cell_angle_beta     117.567
_cell_angle_gamma    90

_space_group_name_H-M_alt    "P 1"
_space_group_IT_number       1

loop_
  _space_group_symop_operation_xyz
  'x, y, z'

loop_
  _atom_site_type_symbol
  _atom_site_label
  _atom_site_symmetry_multiplicity
  _atom_site_fract_x
  _atom_site_fract_y
  _atom_site_fract_z
  _atom_site_occupancy
  B   B1        1.0  0.45400  0.17200  0.17100  1.0000
  B   B2        1.0  0.54600  0.67200  0.32900  1.0000
  B   B3        1.0  0.54600  0.82800  0.82900  1.0000
  B   B4        1.0  0.45400  0.32800  0.67100  1.0000
  B   B5        1.0  0.94100  0.16000  0.59800  1.0000
  B   B6        1.0  0.05910  0.66000  0.90200  1.0000
  B   B7        1.0  0.05910  0.84000  0.40200  1.0000
  B   B8        1.0  0.94100  0.34000  0.09810  1.0000
  Gd  Gd1       1.0  0.81800  0.01680  0.79700  1.0000
  Gd  Gd2       1.0  0.18200  0.51700  0.70300  1.0000
  Gd  Gd3       1.0  0.18200  0.98300  0.20300  1.0000
  Gd  Gd4       1.0  0.81800  0.48300  0.29700  1.0000
  Li  Li1       1.0  0.29100  0.04560  0.82900  1.0000
  Li  Li2       1.0  0.70900  0.54600  0.67100  1.0000
  Li  Li3       1.0  0.70900  0.95400  0.17100  1.0000
  Li  Li4       1.0  0.29100  0.45400  0.32900  1.0000
  Li  Li5       1.0  0.60000  0.24500  0.97300  1.0000
  Li  Li6       1.0  0.40000  0.74500  0.52700  1.0000
  Li  Li7       1.0  0.40000  0.75500  0.02710  1.0000
  Li  Li8       1.0  0.60000  0.25500  0.47300  1.0000
  Li  Li9       1.0  0.16100  0.23200  0.45400  1.0000
  Li  Li10      1.0  0.83900  0.73200  0.04550  1.0000
  Li  Li11      1.0  0.83900  0.76800  0.54600  1.0000
  Li  Li12      1.0  0.16100  0.26800  0.95400  1.0000
  O   O1        1.0  0.05620  0.16500  0.75300  1.0000
  O   O2        1.0  0.94400  0.66500  0.74700  1.0000
  O   O3        1.0  0.94400  0.83500  0.24700  1.0000
  O   O4        1.0  0.05620  0.33500  0.25300  1.0000
  O   O5        1.0  0.98400  0.22100  0.00430  1.0000
  O   O6        1.0  0.01570  0.72100  0.49600  1.0000
  O   O7        1.0  0.01570  0.77900  0.99600  1.0000
  O   O8        1.0  0.98400  0.27900  0.50400  1.0000
  O   O9        1.0  0.78600  0.05290  0.54900  1.0000
  O   O10       1.0  0.21400  0.55300  0.95100  1.0000
  O   O11       1.0  0.21400  0.94700  0.45100  1.0000
  O   O12       1.0  0.78600  0.44700  0.04930  1.0000
  O   O13       1.0  0.33200  0.05360  0.04790  1.0000
  O   O14       1.0  0.66800  0.55400  0.45200  1.0000
  O   O15       1.0  0.66800  0.94600  0.95200  1.0000
  O   O16       1.0  0.33200  0.44600  0.54800  1.0000
  O   O17       1.0  0.40400  0.22800  0.28000  1.0000
  O   O18       1.0  0.59600  0.72800  0.22000  1.0000
  O   O19       1.0  0.59600  0.77200  0.72000  1.0000
  O   O20       1.0  0.40400  0.27200  0.78000  1.0000
  O   O21       1.0  0.61300  0.22500  0.18100  1.0000
  O   O22       1.0  0.38700  0.72500  0.31900  1.0000
  O   O23       1.0  0.38700  0.77500  0.81900  1.0000
  O   O24       1.0  0.61300  0.27500  0.68100  1.0000
