data_image0
_chemical_formula_structural       Co4O8Rb12
_chemical_formula_sum              "Co4 O8 Rb12"
_cell_length_a       12.1168
_cell_length_b       7.50945
_cell_length_c       6.12572
_cell_angle_alpha    90
_cell_angle_beta     90
_cell_angle_gamma    90

_space_group_name_H-M_alt    "P 1"
_space_group_IT_number       1

loop_
  _space_group_symop_operation_xyz
  'x, y, z'

loop_
  _atom_site_type_symbol
  _atom_site_label
  _atom_site_symmetry_multiplicity
  _atom_site_fract_x
  _atom_site_fract_y
  _atom_site_fract_z
  _atom_site_occupancy
  Co  Co1       1.0  0.61800  0.75000  0.30500  1.0000
  Co  Co2       1.0  0.88200  0.25000  0.80500  1.0000
  Co  Co3       1.0  0.11800  0.75000  0.19500  1.0000
  Co  Co4       1.0  0.38200  0.25000  0.69500  1.0000
  O   O1        1.0  0.71400  0.75000  0.52100  1.0000
  O   O2        1.0  0.78600  0.25000  0.02120  1.0000
  O   O3        1.0  0.21400  0.75000  0.97900  1.0000
  O   O4        1.0  0.28600  0.25000  0.47900  1.0000
  O   O5        1.0  0.52800  0.75000  0.08050  1.0000
  O   O6        1.0  0.97200  0.25000  0.58000  1.0000
  O   O7        1.0  0.02820  0.75000  0.42000  1.0000
  O   O8        1.0  0.47200  0.25000  0.92000  1.0000
  Rb  Rb1       1.0  0.60000  0.25000  0.29500  1.0000
  Rb  Rb2       1.0  0.90000  0.75000  0.79500  1.0000
  Rb  Rb3       1.0  0.10000  0.25000  0.20500  1.0000
  Rb  Rb4       1.0  0.40000  0.75000  0.70500  1.0000
  Rb  Rb5       1.0  0.36200  0.99700  0.17900  1.0000
  Rb  Rb6       1.0  0.13800  0.00270  0.67900  1.0000
  Rb  Rb7       1.0  0.86200  0.50300  0.32100  1.0000
  Rb  Rb8       1.0  0.63800  0.49700  0.82100  1.0000
  Rb  Rb9       1.0  0.63800  0.00270  0.82100  1.0000
  Rb  Rb10      1.0  0.86200  0.99700  0.32100  1.0000
  Rb  Rb11      1.0  0.13800  0.49700  0.67900  1.0000
  Rb  Rb12      1.0  0.36200  0.50300  0.17900  1.0000
