data_image0
_chemical_formula_structural       K2Li2Mo8Nd4O32
_chemical_formula_sum              "K2 Li2 Mo8 Nd4 O32"
_cell_length_a       6.73013
_cell_length_b       6.73013
_cell_length_c       18.6568
_cell_angle_alpha    89.6935
_cell_angle_beta     90.3065
_cell_angle_gamma    44.5551

_space_group_name_H-M_alt    "P 1"
_space_group_IT_number       1

loop_
  _space_group_symop_operation_xyz
  'x, y, z'

loop_
  _atom_site_type_symbol
  _atom_site_label
  _atom_site_symmetry_multiplicity
  _atom_site_fract_x
  _atom_site_fract_y
  _atom_site_fract_z
  _atom_site_occupancy
  K   K1        1.0  0.96700  0.96700  0.25000  1.0000
  K   K2        1.0  0.03280  0.03280  0.75000  1.0000
  Li  Li1       1.0  0.67900  0.67900  0.25000  1.0000
  Li  Li2       1.0  0.32100  0.32100  0.75000  1.0000
  Mo  Mo1       1.0  0.56300  0.55700  0.09910  1.0000
  Mo  Mo2       1.0  0.55700  0.56300  0.40100  1.0000
  Mo  Mo3       1.0  0.43700  0.44300  0.90100  1.0000
  Mo  Mo4       1.0  0.44300  0.43700  0.59900  1.0000
  Mo  Mo5       1.0  0.24300  0.27300  0.15900  1.0000
  Mo  Mo6       1.0  0.27300  0.24300  0.34100  1.0000
  Mo  Mo7       1.0  0.75700  0.72700  0.84100  1.0000
  Mo  Mo8       1.0  0.72700  0.75700  0.65900  1.0000
  Nd  Nd1       1.0  0.85000  0.85800  0.03450  1.0000
  Nd  Nd2       1.0  0.85800  0.85000  0.46600  1.0000
  Nd  Nd3       1.0  0.15000  0.14200  0.96600  1.0000
  Nd  Nd4       1.0  0.14200  0.15000  0.53400  1.0000
  O   O1        1.0  0.41600  0.76000  0.17700  1.0000
  O   O2        1.0  0.76000  0.41600  0.32300  1.0000
  O   O3        1.0  0.58400  0.24000  0.82300  1.0000
  O   O4        1.0  0.24000  0.58400  0.67700  1.0000
  O   O5        1.0  0.81500  0.52600  0.04680  1.0000
  O   O6        1.0  0.52600  0.81500  0.45300  1.0000
  O   O7        1.0  0.18500  0.47400  0.95300  1.0000
  O   O8        1.0  0.47400  0.18500  0.54700  1.0000
  O   O9        1.0  0.68000  0.22600  0.11400  1.0000
  O   O10       1.0  0.22600  0.68000  0.38600  1.0000
  O   O11       1.0  0.32000  0.77400  0.88600  1.0000
  O   O12       1.0  0.77400  0.32000  0.61400  1.0000
  O   O13       1.0  0.26500  0.76900  0.03540  1.0000
  O   O14       1.0  0.76900  0.26500  0.46500  1.0000
  O   O15       1.0  0.73500  0.23100  0.96500  1.0000
  O   O16       1.0  0.23100  0.73500  0.53500  1.0000
  O   O17       1.0  0.38900  0.08880  0.07310  1.0000
  O   O18       1.0  0.08880  0.38900  0.42700  1.0000
  O   O19       1.0  0.61100  0.91100  0.92700  1.0000
  O   O20       1.0  0.91100  0.61100  0.57300  1.0000
  O   O21       1.0  0.52600  0.06140  0.22200  1.0000
  O   O22       1.0  0.06140  0.52600  0.27800  1.0000
  O   O23       1.0  0.47400  0.93900  0.77800  1.0000
  O   O24       1.0  0.93900  0.47400  0.72200  1.0000
  O   O25       1.0  0.95000  0.32700  0.18000  1.0000
  O   O26       1.0  0.32700  0.95000  0.32000  1.0000
  O   O27       1.0  0.04980  0.67300  0.82000  1.0000
  O   O28       1.0  0.67300  0.04980  0.68000  1.0000
  O   O29       1.0  0.10800  0.61300  0.14100  1.0000
  O   O30       1.0  0.61300  0.10800  0.35900  1.0000
  O   O31       1.0  0.89200  0.38700  0.85900  1.0000
  O   O32       1.0  0.38700  0.89200  0.64100  1.0000
