data_image0
_chemical_formula_structural       Li2Mo8Nd4O32Rb2
_chemical_formula_sum              "Li2 Mo8 Nd4 O32 Rb2"
_cell_length_a       6.86638
_cell_length_b       6.86638
_cell_length_c       18.9752
_cell_angle_alpha    89.409
_cell_angle_beta     90.591
_cell_angle_gamma    44.085

_space_group_name_H-M_alt    "P 1"
_space_group_IT_number       1

loop_
  _space_group_symop_operation_xyz
  'x, y, z'

loop_
  _atom_site_type_symbol
  _atom_site_label
  _atom_site_symmetry_multiplicity
  _atom_site_fract_x
  _atom_site_fract_y
  _atom_site_fract_z
  _atom_site_occupancy
  Li  Li1       1.0  0.67800  0.67800  0.25000  1.0000
  Li  Li2       1.0  0.32200  0.32200  0.75000  1.0000
  Mo  Mo1       1.0  0.56800  0.55500  0.09680  1.0000
  Mo  Mo2       1.0  0.55500  0.56800  0.40300  1.0000
  Mo  Mo3       1.0  0.43200  0.44500  0.90300  1.0000
  Mo  Mo4       1.0  0.44500  0.43200  0.59700  1.0000
  Mo  Mo5       1.0  0.24600  0.26400  0.15600  1.0000
  Mo  Mo6       1.0  0.26400  0.24600  0.34400  1.0000
  Mo  Mo7       1.0  0.75400  0.73600  0.84400  1.0000
  Mo  Mo8       1.0  0.73600  0.75400  0.65600  1.0000
  Nd  Nd1       1.0  0.85100  0.85700  0.03430  1.0000
  Nd  Nd2       1.0  0.85700  0.85100  0.46600  1.0000
  Nd  Nd3       1.0  0.14900  0.14300  0.96600  1.0000
  Nd  Nd4       1.0  0.14300  0.14900  0.53400  1.0000
  O   O1        1.0  0.43000  0.74700  0.17400  1.0000
  O   O2        1.0  0.74700  0.43000  0.32600  1.0000
  O   O3        1.0  0.57000  0.25300  0.82600  1.0000
  O   O4        1.0  0.25300  0.57000  0.67400  1.0000
  O   O5        1.0  0.81400  0.52400  0.04460  1.0000
  O   O6        1.0  0.52400  0.81400  0.45500  1.0000
  O   O7        1.0  0.18600  0.47600  0.95500  1.0000
  O   O8        1.0  0.47600  0.18600  0.54500  1.0000
  O   O9        1.0  0.67800  0.23100  0.11000  1.0000
  O   O10       1.0  0.23100  0.67800  0.39000  1.0000
  O   O11       1.0  0.32200  0.76900  0.89000  1.0000
  O   O12       1.0  0.76900  0.32200  0.61000  1.0000
  O   O13       1.0  0.26100  0.77300  0.03670  1.0000
  O   O14       1.0  0.77300  0.26100  0.46300  1.0000
  O   O15       1.0  0.73900  0.22700  0.96300  1.0000
  O   O16       1.0  0.22700  0.73900  0.53700  1.0000
  O   O17       1.0  0.39500  0.08220  0.07160  1.0000
  O   O18       1.0  0.08220  0.39500  0.42800  1.0000
  O   O19       1.0  0.60500  0.91800  0.92800  1.0000
  O   O20       1.0  0.91800  0.60500  0.57200  1.0000
  O   O21       1.0  0.51900  0.05900  0.22000  1.0000
  O   O22       1.0  0.05900  0.51900  0.28000  1.0000
  O   O23       1.0  0.48100  0.94100  0.78000  1.0000
  O   O24       1.0  0.94100  0.48100  0.72000  1.0000
  O   O25       1.0  0.95800  0.32100  0.17700  1.0000
  O   O26       1.0  0.32100  0.95800  0.32300  1.0000
  O   O27       1.0  0.04240  0.67900  0.82300  1.0000
  O   O28       1.0  0.67900  0.04240  0.67700  1.0000
  O   O29       1.0  0.10700  0.60300  0.13900  1.0000
  O   O30       1.0  0.60300  0.10700  0.36100  1.0000
  O   O31       1.0  0.89300  0.39700  0.86100  1.0000
  O   O32       1.0  0.39700  0.89300  0.63900  1.0000
  Rb  Rb1       1.0  0.96600  0.96600  0.25000  1.0000
  Rb  Rb2       1.0  0.03400  0.03400  0.75000  1.0000
