data_image0
_chemical_formula_structural       Cs4Mo3O20U3
_chemical_formula_sum              "Cs4 Mo3 O20 U3"
_cell_length_a       7.10721
_cell_length_b       7.72325
_cell_length_c       9.57218
_cell_angle_alpha    79.628
_cell_angle_beta     78.66
_cell_angle_gamma    87.5444

_space_group_name_H-M_alt    "P 1"
_space_group_IT_number       1

loop_
  _space_group_symop_operation_xyz
  'x, y, z'

loop_
  _atom_site_type_symbol
  _atom_site_label
  _atom_site_symmetry_multiplicity
  _atom_site_fract_x
  _atom_site_fract_y
  _atom_site_fract_z
  _atom_site_occupancy
  Cs  Cs1       1.0  0.35000  0.31100  0.75400  1.0000
  Cs  Cs2       1.0  0.45200  0.23800  0.28700  1.0000
  Cs  Cs3       1.0  0.49300  0.78700  0.03210  1.0000
  Cs  Cs4       1.0  0.67800  0.72900  0.53200  1.0000
  Mo  Mo1       1.0  0.21600  0.70100  0.43600  1.0000
  Mo  Mo2       1.0  0.82400  0.34400  0.89100  1.0000
  Mo  Mo3       1.0  0.91600  0.21600  0.51300  1.0000
  O   O1        1.0  0.37900  0.52400  0.44600  1.0000
  O   O2        1.0  0.08180  0.11500  0.62800  1.0000
  O   O3        1.0  0.10000  0.75000  0.27600  1.0000
  O   O4        1.0  0.05330  0.68000  0.60800  1.0000
  O   O5        1.0  0.29600  0.83300  0.77500  1.0000
  O   O6        1.0  0.72600  0.58700  0.22300  1.0000
  O   O7        1.0  0.93700  0.12000  0.90500  1.0000
  O   O8        1.0  0.22400  0.47700  0.09990  1.0000
  O   O9        1.0  0.73500  0.95200  0.21900  1.0000
  O   O10       1.0  0.66900  0.17000  0.55300  1.0000
  O   O11       1.0  0.98600  0.43200  0.40800  1.0000
  O   O12       1.0  0.35200  0.88500  0.42800  1.0000
  O   O13       1.0  0.82700  0.36900  0.70000  1.0000
  O   O14       1.0  0.01440  0.80100  0.02090  1.0000
  O   O15       1.0  0.99500  0.08220  0.37500  1.0000
  O   O16       1.0  0.95700  0.54300  0.89700  1.0000
  O   O17       1.0  0.86200  0.29200  0.11500  1.0000
  O   O18       1.0  0.78300  0.86900  0.78000  1.0000
  O   O19       1.0  0.57800  0.36000  0.95900  1.0000
  O   O20       1.0  0.23100  0.09030  0.07830  1.0000
  U   U1        1.0  0.03740  0.85100  0.78500  1.0000
  U   U2        1.0  0.97500  0.53300  0.15900  1.0000
  U   U3        1.0  0.98200  0.02180  0.14800  1.0000
