data_image0
_chemical_formula_structural       Ge4Ir2La2
_chemical_formula_sum              "Ge4 Ir2 La2"
_cell_length_a       4.42141
_cell_length_b       4.40881
_cell_length_c       8.95582
_cell_angle_alpha    75.7507
_cell_angle_beta     90
_cell_angle_gamma    90

_space_group_name_H-M_alt    "P 1"
_space_group_IT_number       1

loop_
  _space_group_symop_operation_xyz
  'x, y, z'

loop_
  _atom_site_type_symbol
  _atom_site_label
  _atom_site_symmetry_multiplicity
  _atom_site_fract_x
  _atom_site_fract_y
  _atom_site_fract_z
  _atom_site_occupancy
  Ge  Ge1       1.0  0.75000  0.46000  0.08010  1.0000
  Ge  Ge2       1.0  0.25000  0.25100  0.49900  1.0000
  Ge  Ge3       1.0  0.75000  0.74900  0.50100  1.0000
  Ge  Ge4       1.0  0.25000  0.54000  0.92000  1.0000
  Ir  Ir1       1.0  0.75000  0.32000  0.35900  1.0000
  Ir  Ir2       1.0  0.25000  0.68000  0.64100  1.0000
  La  La1       1.0  0.25000  0.89100  0.21800  1.0000
  La  La2       1.0  0.75000  0.10900  0.78200  1.0000
