data_image0
_chemical_formula_structural       Ba8Ir6O20
_chemical_formula_sum              "Ba8 Ir6 O20"
_cell_length_a       7.18587
_cell_length_b       7.18587
_cell_length_c       13.1874
_cell_angle_alpha    90
_cell_angle_beta     90
_cell_angle_gamma    46.8363

_space_group_name_H-M_alt    "P 1"
_space_group_IT_number       1

loop_
  _space_group_symop_operation_xyz
  'x, y, z'

loop_
  _atom_site_type_symbol
  _atom_site_label
  _atom_site_symmetry_multiplicity
  _atom_site_fract_x
  _atom_site_fract_y
  _atom_site_fract_z
  _atom_site_occupancy
  Ba  Ba1       1.0  0.46700  0.46700  0.14000  1.0000
  Ba  Ba2       1.0  0.03320  0.03320  0.64000  1.0000
  Ba  Ba3       1.0  0.53300  0.53300  0.86000  1.0000
  Ba  Ba4       1.0  0.96700  0.96700  0.36000  1.0000
  Ba  Ba5       1.0  0.76200  0.76200  0.12100  1.0000
  Ba  Ba6       1.0  0.73800  0.73800  0.62100  1.0000
  Ba  Ba7       1.0  0.23800  0.23800  0.87900  1.0000
  Ba  Ba8       1.0  0.26200  0.26200  0.37900  1.0000
  Ir  Ir1       1.0  0.00000  0.00000  0.00000  1.0000
  Ir  Ir2       1.0  0.50000  0.50000  0.50000  1.0000
  Ir  Ir3       1.0  0.12700  0.12700  0.14700  1.0000
  Ir  Ir4       1.0  0.37300  0.37300  0.64700  1.0000
  Ir  Ir5       1.0  0.87300  0.87300  0.85300  1.0000
  Ir  Ir6       1.0  0.62700  0.62700  0.35300  1.0000
  O   O1        1.0  0.36500  0.86500  0.25000  1.0000
  O   O2        1.0  0.13500  0.63500  0.75000  1.0000
  O   O3        1.0  0.63500  0.13500  0.75000  1.0000
  O   O4        1.0  0.86500  0.36500  0.25000  1.0000
  O   O5        1.0  0.27600  0.27600  0.16000  1.0000
  O   O6        1.0  0.22400  0.22400  0.66000  1.0000
  O   O7        1.0  0.72400  0.72400  0.84000  1.0000
  O   O8        1.0  0.77600  0.77600  0.34000  1.0000
  O   O9        1.0  0.34800  0.88200  0.03030  1.0000
  O   O10       1.0  0.15200  0.61800  0.53000  1.0000
  O   O11       1.0  0.11800  0.65200  0.97000  1.0000
  O   O12       1.0  0.38200  0.84800  0.47000  1.0000
  O   O13       1.0  0.65200  0.11800  0.97000  1.0000
  O   O14       1.0  0.84800  0.38200  0.47000  1.0000
  O   O15       1.0  0.88200  0.34800  0.03030  1.0000
  O   O16       1.0  0.61800  0.15200  0.53000  1.0000
  O   O17       1.0  0.96400  0.96400  0.15100  1.0000
  O   O18       1.0  0.53600  0.53600  0.65100  1.0000
  O   O19       1.0  0.03560  0.03560  0.84900  1.0000
  O   O20       1.0  0.46400  0.46400  0.34900  1.0000
