data_image0
_chemical_formula_structural       Cl2HgO2Pb2
_chemical_formula_sum              "Cl2 Hg1 O2 Pb2"
_cell_length_a       3.95067
_cell_length_b       6.27785
_cell_length_c       7.09665
_cell_angle_alpha    98.303
_cell_angle_beta     106.162
_cell_angle_gamma    108.34

_space_group_name_H-M_alt    "P 1"
_space_group_IT_number       1

loop_
  _space_group_symop_operation_xyz
  'x, y, z'

loop_
  _atom_site_type_symbol
  _atom_site_label
  _atom_site_symmetry_multiplicity
  _atom_site_fract_x
  _atom_site_fract_y
  _atom_site_fract_z
  _atom_site_occupancy
  Cl  Cl1       1.0  0.76800  0.20000  0.33600  1.0000
  Cl  Cl2       1.0  0.23200  0.80000  0.66400  1.0000
  Hg  Hg1       1.0  0.00000  0.00000  0.00000  1.0000
  O   O1        1.0  0.87300  0.67900  0.06760  1.0000
  O   O2        1.0  0.12700  0.32100  0.93200  1.0000
  Pb  Pb1       1.0  0.43000  0.61100  0.24900  1.0000
  Pb  Pb2       1.0  0.57000  0.38900  0.75100  1.0000
