data_image0
_chemical_formula_structural       La7P12Pd17
_chemical_formula_sum              "La7 P12 Pd17"
_cell_length_a       12.4886
_cell_length_b       12.4886
_cell_length_c       13.7051
_cell_angle_alpha    68.1679
_cell_angle_beta     111.832
_cell_angle_gamma    161.111

_space_group_name_H-M_alt    "P 1"
_space_group_IT_number       1

loop_
  _space_group_symop_operation_xyz
  'x, y, z'

loop_
  _atom_site_type_symbol
  _atom_site_label
  _atom_site_symmetry_multiplicity
  _atom_site_fract_x
  _atom_site_fract_y
  _atom_site_fract_z
  _atom_site_occupancy
  La  La1       1.0  0.76600  0.23400  0.31300  1.0000
  La  La2       1.0  0.23400  0.76600  0.68700  1.0000
  La  La3       1.0  0.63500  0.36500  0.00040  1.0000
  La  La4       1.0  0.36500  0.63500  0.00000  1.0000
  La  La5       1.0  0.50000  0.50000  0.50000  1.0000
  La  La6       1.0  0.58300  0.41700  0.26200  1.0000
  La  La7       1.0  0.41700  0.58300  0.73800  1.0000
  P   P1        1.0  0.98900  0.01100  0.67100  1.0000
  P   P2        1.0  0.01100  0.98900  0.32900  1.0000
  P   P3        1.0  0.63600  0.36400  0.58000  1.0000
  P   P4        1.0  0.36400  0.63600  0.42000  1.0000
  P   P5        1.0  0.76600  0.23400  0.88200  1.0000
  P   P6        1.0  0.23400  0.76600  0.11800  1.0000
  P   P7        1.0  0.94000  0.06040  0.92600  1.0000
  P   P8        1.0  0.06040  0.94000  0.07400  1.0000
  P   P9        1.0  0.81100  0.18900  0.61900  1.0000
  P   P10       1.0  0.18900  0.81100  0.38100  1.0000
  P   P11       1.0  0.11300  0.88700  0.82800  1.0000
  P   P12       1.0  0.88700  0.11300  0.17200  1.0000
  Pd  Pd1       1.0  0.16100  0.83900  0.19300  1.0000
  Pd  Pd2       1.0  0.83900  0.16100  0.80700  1.0000
  Pd  Pd3       1.0  0.97400  0.02570  0.12600  1.0000
  Pd  Pd4       1.0  0.02570  0.97400  0.87400  1.0000
  Pd  Pd5       1.0  0.11000  0.89000  0.45800  1.0000
  Pd  Pd6       1.0  0.89000  0.11000  0.54200  1.0000
  Pd  Pd7       1.0  0.50000  0.50000  0.00000  1.0000
  Pd  Pd8       1.0  0.45300  0.54700  0.25400  1.0000
  Pd  Pd9       1.0  0.54700  0.45300  0.74600  1.0000
  Pd  Pd10      1.0  0.70300  0.29700  0.48800  1.0000
  Pd  Pd11      1.0  0.29700  0.70300  0.51200  1.0000
  Pd  Pd12      1.0  0.33500  0.66500  0.22300  1.0000
  Pd  Pd13      1.0  0.66500  0.33500  0.77700  1.0000
  Pd  Pd14      1.0  0.09270  0.90700  0.64400  1.0000
  Pd  Pd15      1.0  0.90700  0.09270  0.35600  1.0000
  Pd  Pd16      1.0  0.78100  0.21900  0.07140  1.0000
  Pd  Pd17      1.0  0.21900  0.78100  0.92900  1.0000
