data_image0
_chemical_formula_structural       Li8O56Sr4Ti24
_chemical_formula_sum              "Li8 O56 Sr4 Ti24"
_cell_length_a       9.91712
_cell_length_b       9.91712
_cell_length_c       11.3255
_cell_angle_alpha    90
_cell_angle_beta     90
_cell_angle_gamma    112.415

_space_group_name_H-M_alt    "P 1"
_space_group_IT_number       1

loop_
  _space_group_symop_operation_xyz
  'x, y, z'

loop_
  _atom_site_type_symbol
  _atom_site_label
  _atom_site_symmetry_multiplicity
  _atom_site_fract_x
  _atom_site_fract_y
  _atom_site_fract_z
  _atom_site_occupancy
  Li  Li1       1.0  0.44000  0.07260  0.62300  1.0000
  Li  Li2       1.0  0.06010  0.42700  0.12300  1.0000
  Li  Li3       1.0  0.92700  0.56000  0.37700  1.0000
  Li  Li4       1.0  0.57300  0.94000  0.87700  1.0000
  Li  Li5       1.0  0.56000  0.92700  0.37700  1.0000
  Li  Li6       1.0  0.94000  0.57300  0.87700  1.0000
  Li  Li7       1.0  0.07260  0.44000  0.62300  1.0000
  Li  Li8       1.0  0.42700  0.06010  0.12300  1.0000
  O   O1        1.0  0.87500  0.13800  0.74900  1.0000
  O   O2        1.0  0.62500  0.36200  0.24900  1.0000
  O   O3        1.0  0.61800  0.14800  0.87200  1.0000
  O   O4        1.0  0.88200  0.35200  0.37200  1.0000
  O   O5        1.0  0.85200  0.38200  0.12800  1.0000
  O   O6        1.0  0.64800  0.11800  0.62800  1.0000
  O   O7        1.0  0.38200  0.85200  0.12800  1.0000
  O   O8        1.0  0.11800  0.64800  0.62800  1.0000
  O   O9        1.0  0.14800  0.61800  0.87200  1.0000
  O   O10       1.0  0.35200  0.88200  0.37200  1.0000
  O   O11       1.0  0.62900  0.37100  0.00000  1.0000
  O   O12       1.0  0.87100  0.12900  0.50000  1.0000
  O   O13       1.0  0.37100  0.62900  0.00000  1.0000
  O   O14       1.0  0.12900  0.87100  0.50000  1.0000
  O   O15       1.0  0.63400  0.36600  0.50000  1.0000
  O   O16       1.0  0.86600  0.13400  0.00000  1.0000
  O   O17       1.0  0.36600  0.63400  0.50000  1.0000
  O   O18       1.0  0.13400  0.86600  0.00000  1.0000
  O   O19       1.0  0.35400  0.14100  0.75800  1.0000
  O   O20       1.0  0.14600  0.35900  0.25800  1.0000
  O   O21       1.0  0.85900  0.64600  0.24200  1.0000
  O   O22       1.0  0.64100  0.85400  0.74200  1.0000
  O   O23       1.0  0.64600  0.85900  0.24200  1.0000
  O   O24       1.0  0.85400  0.64100  0.74200  1.0000
  O   O25       1.0  0.14100  0.35400  0.75800  1.0000
  O   O26       1.0  0.35900  0.14600  0.25800  1.0000
  O   O27       1.0  0.58000  0.58000  0.12000  1.0000
  O   O28       1.0  0.92000  0.92000  0.62000  1.0000
  O   O29       1.0  0.42000  0.42000  0.88000  1.0000
  O   O30       1.0  0.08000  0.08000  0.38000  1.0000
  O   O31       1.0  0.36000  0.14700  0.98900  1.0000
  O   O32       1.0  0.14000  0.35300  0.48900  1.0000
  O   O33       1.0  0.85300  0.64000  0.01150  1.0000
  O   O34       1.0  0.64700  0.86000  0.51100  1.0000
  O   O35       1.0  0.64000  0.85300  0.01150  1.0000
  O   O36       1.0  0.86000  0.64700  0.51100  1.0000
  O   O37       1.0  0.14700  0.36000  0.98900  1.0000
  O   O38       1.0  0.35300  0.14000  0.48900  1.0000
  O   O39       1.0  0.91700  0.91700  0.13400  1.0000
  O   O40       1.0  0.58300  0.58300  0.63400  1.0000
  O   O41       1.0  0.08280  0.08280  0.86600  1.0000
  O   O42       1.0  0.41700  0.41700  0.36600  1.0000
  O   O43       1.0  0.36000  0.88500  0.87800  1.0000
  O   O44       1.0  0.14000  0.61500  0.37800  1.0000
  O   O45       1.0  0.11500  0.64000  0.12200  1.0000
  O   O46       1.0  0.38500  0.86000  0.62200  1.0000
  O   O47       1.0  0.64000  0.11500  0.12200  1.0000
  O   O48       1.0  0.86000  0.38500  0.62200  1.0000
  O   O49       1.0  0.88500  0.36000  0.87800  1.0000
  O   O50       1.0  0.61500  0.14000  0.37800  1.0000
  O   O51       1.0  0.13800  0.87500  0.74900  1.0000
  O   O52       1.0  0.36200  0.62500  0.24900  1.0000
  O   O53       1.0  0.12500  0.86200  0.25100  1.0000
  O   O54       1.0  0.37500  0.63800  0.75100  1.0000
  O   O55       1.0  0.63800  0.37500  0.75100  1.0000
  O   O56       1.0  0.86200  0.12500  0.25100  1.0000
  Sr  Sr1       1.0  0.85100  0.85100  0.37700  1.0000
  Sr  Sr2       1.0  0.64900  0.64900  0.87700  1.0000
  Sr  Sr3       1.0  0.14900  0.14900  0.62300  1.0000
  Sr  Sr4       1.0  0.35100  0.35100  0.12300  1.0000
  Ti  Ti1       1.0  0.48600  0.26700  0.86400  1.0000
  Ti  Ti2       1.0  0.01390  0.23300  0.36400  1.0000
  Ti  Ti3       1.0  0.73300  0.51400  0.13600  1.0000
  Ti  Ti4       1.0  0.76700  0.98600  0.63600  1.0000
  Ti  Ti5       1.0  0.51400  0.73300  0.13600  1.0000
  Ti  Ti6       1.0  0.98600  0.76700  0.63600  1.0000
  Ti  Ti7       1.0  0.26700  0.48600  0.86400  1.0000
  Ti  Ti8       1.0  0.23300  0.01390  0.36400  1.0000
  Ti  Ti9       1.0  0.24300  0.75700  0.50000  1.0000
  Ti  Ti10      1.0  0.25700  0.74300  0.00000  1.0000
  Ti  Ti11      1.0  0.75700  0.24300  0.50000  1.0000
  Ti  Ti12      1.0  0.74300  0.25700  0.00000  1.0000
  Ti  Ti13      1.0  0.24100  0.74100  0.25000  1.0000
  Ti  Ti14      1.0  0.25900  0.75900  0.75000  1.0000
  Ti  Ti15      1.0  0.75900  0.25900  0.75000  1.0000
  Ti  Ti16      1.0  0.74100  0.24100  0.25000  1.0000
  Ti  Ti17      1.0  0.22700  0.01140  0.88300  1.0000
  Ti  Ti18      1.0  0.27300  0.48900  0.38300  1.0000
  Ti  Ti19      1.0  0.98900  0.77300  0.11700  1.0000
  Ti  Ti20      1.0  0.51100  0.72700  0.61700  1.0000
  Ti  Ti21      1.0  0.77300  0.98900  0.11700  1.0000
  Ti  Ti22      1.0  0.72700  0.51100  0.61700  1.0000
  Ti  Ti23      1.0  0.01140  0.22700  0.88300  1.0000
  Ti  Ti24      1.0  0.48900  0.27300  0.38300  1.0000
