data_image0
_chemical_formula_structural       K4Li4O28P8Zn4
_chemical_formula_sum              "K4 Li4 O28 P8 Zn4"
_cell_length_a       12.0315
_cell_length_b       4.8291
_cell_length_c       9.8018
_cell_angle_alpha    90
_cell_angle_beta     90
_cell_angle_gamma    90

_space_group_name_H-M_alt    "P 1"
_space_group_IT_number       1

loop_
  _space_group_symop_operation_xyz
  'x, y, z'

loop_
  _atom_site_type_symbol
  _atom_site_label
  _atom_site_symmetry_multiplicity
  _atom_site_fract_x
  _atom_site_fract_y
  _atom_site_fract_z
  _atom_site_occupancy
  K   K1        1.0  0.50000  0.51900  0.97200  1.0000
  K   K2        1.0  0.50000  0.48100  0.47200  1.0000
  K   K3        1.0  0.00000  0.99300  0.78100  1.0000
  K   K4        1.0  0.00000  0.00703  0.28100  1.0000
  Li  Li1       1.0  0.24900  0.92500  0.97000  1.0000
  Li  Li2       1.0  0.75100  0.07490  0.47000  1.0000
  Li  Li3       1.0  0.75100  0.92500  0.97000  1.0000
  Li  Li4       1.0  0.24900  0.07490  0.47000  1.0000
  O   O1        1.0  0.11300  0.48800  0.68800  1.0000
  O   O2        1.0  0.88700  0.51200  0.18800  1.0000
  O   O3        1.0  0.88700  0.48800  0.68800  1.0000
  O   O4        1.0  0.11300  0.51200  0.18800  1.0000
  O   O5        1.0  0.11900  0.90100  0.52600  1.0000
  O   O6        1.0  0.88100  0.09880  0.02580  1.0000
  O   O7        1.0  0.88100  0.90100  0.52600  1.0000
  O   O8        1.0  0.11900  0.09880  0.02580  1.0000
  O   O9        1.0  0.21000  0.44800  0.46100  1.0000
  O   O10       1.0  0.79000  0.55200  0.96100  1.0000
  O   O11       1.0  0.79000  0.44800  0.46100  1.0000
  O   O12       1.0  0.21000  0.55200  0.96100  1.0000
  O   O13       1.0  0.00000  0.48300  0.47400  1.0000
  O   O14       1.0  0.00000  0.51700  0.97400  1.0000
  O   O15       1.0  0.38200  0.00917  0.55600  1.0000
  O   O16       1.0  0.61800  0.99100  0.05600  1.0000
  O   O17       1.0  0.61800  0.00917  0.55600  1.0000
  O   O18       1.0  0.38200  0.99100  0.05600  1.0000
  O   O19       1.0  0.50000  0.01620  0.77100  1.0000
  O   O20       1.0  0.50000  0.98400  0.27100  1.0000
  O   O21       1.0  0.38500  0.59800  0.71900  1.0000
  O   O22       1.0  0.61500  0.40200  0.21900  1.0000
  O   O23       1.0  0.61500  0.59800  0.71900  1.0000
  O   O24       1.0  0.38500  0.40200  0.21900  1.0000
  O   O25       1.0  0.29000  0.03270  0.79000  1.0000
  O   O26       1.0  0.71000  0.96700  0.29000  1.0000
  O   O27       1.0  0.71000  0.03270  0.79000  1.0000
  O   O28       1.0  0.29000  0.96700  0.29000  1.0000
  P   P1        1.0  0.11600  0.59100  0.54100  1.0000
  P   P2        1.0  0.88400  0.40900  0.04090  1.0000
  P   P3        1.0  0.88400  0.59100  0.54100  1.0000
  P   P4        1.0  0.11600  0.40900  0.04090  1.0000
  P   P5        1.0  0.38400  0.91400  0.70100  1.0000
  P   P6        1.0  0.61600  0.08630  0.20100  1.0000
  P   P7        1.0  0.61600  0.91400  0.70100  1.0000
  P   P8        1.0  0.38400  0.08630  0.20100  1.0000
  Zn  Zn1       1.0  0.25100  0.42000  0.78000  1.0000
  Zn  Zn2       1.0  0.74900  0.58000  0.28000  1.0000
  Zn  Zn3       1.0  0.74900  0.42000  0.78000  1.0000
  Zn  Zn4       1.0  0.25100  0.58000  0.28000  1.0000
