data_image0
_chemical_formula_structural       La5NiO16Re3
_chemical_formula_sum              "La5 Ni1 O16 Re3"
_cell_length_a       5.67521
_cell_length_b       7.23459
_cell_length_c       9.49019
_cell_angle_alpha    97.5676
_cell_angle_beta     106.285
_cell_angle_gamma    78.6395

_space_group_name_H-M_alt    "P 1"
_space_group_IT_number       1

loop_
  _space_group_symop_operation_xyz
  'x, y, z'

loop_
  _atom_site_type_symbol
  _atom_site_label
  _atom_site_symmetry_multiplicity
  _atom_site_fract_x
  _atom_site_fract_y
  _atom_site_fract_z
  _atom_site_occupancy
  La  La1       1.0  0.51100  0.71500  0.89900  1.0000
  La  La2       1.0  0.48800  0.28500  0.10000  1.0000
  La  La3       1.0  0.21500  0.13000  0.72600  1.0000
  La  La4       1.0  0.78500  0.87000  0.27500  1.0000
  La  La5       1.0  0.50000  0.50000  0.50000  1.0000
  Ni  Ni1       1.0  0.99600  0.49900  0.00186  1.0000
  O   O1        1.0  0.91400  0.09870  0.17100  1.0000
  O   O2        1.0  0.08500  0.90200  0.82900  1.0000
  O   O3        1.0  0.23100  0.32800  0.27600  1.0000
  O   O4        1.0  0.77000  0.67200  0.72300  1.0000
  O   O5        1.0  0.21900  0.32300  0.54300  1.0000
  O   O6        1.0  0.78100  0.67700  0.45700  1.0000
  O   O7        1.0  0.37000  0.94000  0.10100  1.0000
  O   O8        1.0  0.63000  0.05930  0.89900  1.0000
  O   O9        1.0  0.07140  0.23600  0.95800  1.0000
  O   O10       1.0  0.92900  0.76400  0.04220  1.0000
  O   O11       1.0  0.74700  0.29000  0.35800  1.0000
  O   O12       1.0  0.25300  0.71100  0.64200  1.0000
  O   O13       1.0  0.13900  0.67600  0.34700  1.0000
  O   O14       1.0  0.86200  0.32400  0.65300  1.0000
  O   O15       1.0  0.73200  0.53400  0.16100  1.0000
  O   O16       1.0  0.27000  0.46500  0.83900  1.0000
  Re  Re1       1.0  0.00042  0.00000  0.00020  1.0000
  Re  Re2       1.0  0.97600  0.45000  0.36000  1.0000
  Re  Re3       1.0  0.02490  0.55000  0.64000  1.0000
