data_image0
_chemical_formula_structural       Cl18Nb6Tl2V
_chemical_formula_sum              "Cl18 Nb6 Tl2 V1"
_cell_length_a       9.86582
_cell_length_b       9.86603
_cell_length_c       9.86594
_cell_angle_alpha    54.649
_cell_angle_beta     54.6469
_cell_angle_gamma    54.6467

_space_group_name_H-M_alt    "P 1"
_space_group_IT_number       1

loop_
  _space_group_symop_operation_xyz
  'x, y, z'

loop_
  _atom_site_type_symbol
  _atom_site_label
  _atom_site_symmetry_multiplicity
  _atom_site_fract_x
  _atom_site_fract_y
  _atom_site_fract_z
  _atom_site_occupancy
  Cl  Cl1       1.0  0.43800  0.57600  0.14800  1.0000
  Cl  Cl2       1.0  0.14800  0.43800  0.57600  1.0000
  Cl  Cl3       1.0  0.57600  0.14800  0.43800  1.0000
  Cl  Cl4       1.0  0.56200  0.42400  0.85200  1.0000
  Cl  Cl5       1.0  0.85200  0.56200  0.42400  1.0000
  Cl  Cl6       1.0  0.42400  0.85200  0.56200  1.0000
  Cl  Cl7       1.0  0.78800  0.64100  0.06910  1.0000
  Cl  Cl8       1.0  0.06920  0.78800  0.64100  1.0000
  Cl  Cl9       1.0  0.64100  0.06920  0.78800  1.0000
  Cl  Cl10      1.0  0.21200  0.35900  0.93100  1.0000
  Cl  Cl11      1.0  0.93100  0.21200  0.35900  1.0000
  Cl  Cl12      1.0  0.35900  0.93100  0.21200  1.0000
  Cl  Cl13      1.0  0.85400  0.29800  0.01930  1.0000
  Cl  Cl14      1.0  0.01930  0.85400  0.29800  1.0000
  Cl  Cl15      1.0  0.29800  0.01930  0.85400  1.0000
  Cl  Cl16      1.0  0.14600  0.70200  0.98100  1.0000
  Cl  Cl17      1.0  0.98100  0.14600  0.70200  1.0000
  Cl  Cl18      1.0  0.70200  0.98100  0.14600  1.0000
  Nb  Nb1       1.0  0.65700  0.40900  0.29200  1.0000
  Nb  Nb2       1.0  0.29200  0.65700  0.40900  1.0000
  Nb  Nb3       1.0  0.40900  0.29200  0.65700  1.0000
  Nb  Nb4       1.0  0.34300  0.59100  0.70800  1.0000
  Nb  Nb5       1.0  0.70800  0.34300  0.59100  1.0000
  Nb  Nb6       1.0  0.59100  0.70800  0.34300  1.0000
  Tl  Tl1       1.0  0.72100  0.72100  0.72100  1.0000
  Tl  Tl2       1.0  0.27900  0.27900  0.27900  1.0000
  V   V1        1.0  0.00000  0.00000  0.00000  1.0000
