data_image0
_chemical_formula_structural       La8O20Ru4
_chemical_formula_sum              "La8 O20 Ru4"
_cell_length_a       8.99815
_cell_length_b       5.77538
_cell_length_c       7.88377
_cell_angle_alpha    89.9993
_cell_angle_beta     100.291
_cell_angle_gamma    90.0001

_space_group_name_H-M_alt    "P 1"
_space_group_IT_number       1

loop_
  _space_group_symop_operation_xyz
  'x, y, z'

loop_
  _atom_site_type_symbol
  _atom_site_label
  _atom_site_symmetry_multiplicity
  _atom_site_fract_x
  _atom_site_fract_y
  _atom_site_fract_z
  _atom_site_occupancy
  La  La1       1.0  0.54800  0.25800  0.37700  1.0000
  La  La2       1.0  0.45200  0.75800  0.12300  1.0000
  La  La3       1.0  0.45200  0.74200  0.62300  1.0000
  La  La4       1.0  0.54800  0.24200  0.87700  1.0000
  La  La5       1.0  0.17000  0.25300  0.03920  1.0000
  La  La6       1.0  0.83000  0.75300  0.46100  1.0000
  La  La7       1.0  0.83000  0.74700  0.96100  1.0000
  La  La8       1.0  0.17000  0.24700  0.53900  1.0000
  O   O1        1.0  0.85200  0.16600  0.96100  1.0000
  O   O2        1.0  0.14800  0.66600  0.53900  1.0000
  O   O3        1.0  0.14800  0.83400  0.03880  1.0000
  O   O4        1.0  0.85200  0.33400  0.46100  1.0000
  O   O5        1.0  0.31900  0.96800  0.37700  1.0000
  O   O6        1.0  0.68100  0.46800  0.12300  1.0000
  O   O7        1.0  0.68100  0.03220  0.62300  1.0000
  O   O8        1.0  0.31900  0.53200  0.87700  1.0000
  O   O9        1.0  0.42100  0.16000  0.10200  1.0000
  O   O10       1.0  0.57900  0.66000  0.39800  1.0000
  O   O11       1.0  0.57900  0.84000  0.89800  1.0000
  O   O12       1.0  0.42100  0.34000  0.60200  1.0000
  O   O13       1.0  0.97800  0.96100  0.70400  1.0000
  O   O14       1.0  0.02240  0.46100  0.79600  1.0000
  O   O15       1.0  0.02240  0.03900  0.29600  1.0000
  O   O16       1.0  0.97800  0.53900  0.20400  1.0000
  O   O17       1.0  0.28100  0.01720  0.77800  1.0000
  O   O18       1.0  0.71900  0.51700  0.72200  1.0000
  O   O19       1.0  0.71900  0.98300  0.22200  1.0000
  O   O20       1.0  0.28100  0.48300  0.27800  1.0000
  Ru  Ru1       1.0  0.84900  0.25300  0.21000  1.0000
  Ru  Ru2       1.0  0.15000  0.75300  0.29000  1.0000
  Ru  Ru3       1.0  0.15100  0.74700  0.79000  1.0000
  Ru  Ru4       1.0  0.84900  0.24700  0.71000  1.0000
