data_image0
_chemical_formula_structural       O18Rb2W6
_chemical_formula_sum              "O18 Rb2 W6"
_cell_length_a       7.26232
_cell_length_b       7.26232
_cell_length_c       7.38901
_cell_angle_alpha    90
_cell_angle_beta     90
_cell_angle_gamma    120

_space_group_name_H-M_alt    "P 1"
_space_group_IT_number       1

loop_
  _space_group_symop_operation_xyz
  'x, y, z'

loop_
  _atom_site_type_symbol
  _atom_site_label
  _atom_site_symmetry_multiplicity
  _atom_site_fract_x
  _atom_site_fract_y
  _atom_site_fract_z
  _atom_site_occupancy
  O   O1        1.0  0.41500  0.21000  0.29400  1.0000
  O   O2        1.0  0.58500  0.79000  0.79400  1.0000
  O   O3        1.0  0.79000  0.20400  0.29400  1.0000
  O   O4        1.0  0.79600  0.58500  0.29400  1.0000
  O   O5        1.0  0.20400  0.41500  0.79400  1.0000
  O   O6        1.0  0.21000  0.79600  0.79400  1.0000
  O   O7        1.0  0.53600  0.07230  0.00023  1.0000
  O   O8        1.0  0.46400  0.92800  0.50000  1.0000
  O   O9        1.0  0.92800  0.46400  0.00023  1.0000
  O   O10       1.0  0.53600  0.46400  0.00023  1.0000
  O   O11       1.0  0.46400  0.53600  0.50000  1.0000
  O   O12       1.0  0.07230  0.53600  0.50000  1.0000
  O   O13       1.0  0.21000  0.41400  0.20600  1.0000
  O   O14       1.0  0.79000  0.58600  0.70600  1.0000
  O   O15       1.0  0.58600  0.79600  0.20600  1.0000
  O   O16       1.0  0.20400  0.79000  0.20600  1.0000
  O   O17       1.0  0.79600  0.21000  0.70600  1.0000
  O   O18       1.0  0.41400  0.20400  0.70600  1.0000
  Rb  Rb1       1.0  0.00000  0.00000  0.99900  1.0000
  Rb  Rb2       1.0  0.00000  0.00000  0.49900  1.0000
  W   W1        1.0  0.48800  0.00001  0.25000  1.0000
  W   W2        1.0  0.51200  0.00000  0.75000  1.0000
  W   W3        1.0  0.00000  0.48800  0.25000  1.0000
  W   W4        1.0  0.51200  0.51200  0.25000  1.0000
  W   W5        1.0  0.48800  0.48800  0.75000  1.0000
  W   W6        1.0  0.00001  0.51200  0.75000  1.0000
