data_image0
_chemical_formula_structural       Ca4Ga4La4O16
_chemical_formula_sum              "Ca4 Ga4 La4 O16"
_cell_length_a       11.7543
_cell_length_b       5.35208
_cell_length_c       6.85889
_cell_angle_alpha    90
_cell_angle_beta     90
_cell_angle_gamma    89.9999

_space_group_name_H-M_alt    "P 1"
_space_group_IT_number       1

loop_
  _space_group_symop_operation_xyz
  'x, y, z'

loop_
  _atom_site_type_symbol
  _atom_site_label
  _atom_site_symmetry_multiplicity
  _atom_site_fract_x
  _atom_site_fract_y
  _atom_site_fract_z
  _atom_site_occupancy
  Ca  Ca1       1.0  0.50000  0.50000  0.48700  1.0000
  Ca  Ca2       1.0  0.50000  0.50000  0.98700  1.0000
  Ca  Ca3       1.0  0.00006  0.00000  0.98700  1.0000
  Ca  Ca4       1.0  0.00000  0.00004  0.48700  1.0000
  Ga  Ga1       1.0  0.40900  0.06860  0.23700  1.0000
  Ga  Ga2       1.0  0.59100  0.93100  0.73700  1.0000
  Ga  Ga3       1.0  0.09120  0.56900  0.73700  1.0000
  Ga  Ga4       1.0  0.90900  0.43100  0.23700  1.0000
  La  La1       1.0  0.21900  0.51400  0.23700  1.0000
  La  La2       1.0  0.78100  0.48600  0.73700  1.0000
  La  La3       1.0  0.28100  0.01420  0.73700  1.0000
  La  La4       1.0  0.71900  0.98600  0.23700  1.0000
  O   O1        1.0  0.40900  0.72800  0.23700  1.0000
  O   O2        1.0  0.59100  0.27200  0.73700  1.0000
  O   O3        1.0  0.09070  0.22800  0.73700  1.0000
  O   O4        1.0  0.90900  0.77200  0.23700  1.0000
  O   O5        1.0  0.16300  0.73400  0.52500  1.0000
  O   O6        1.0  0.83700  0.26600  0.02540  1.0000
  O   O7        1.0  0.33700  0.23400  0.02540  1.0000
  O   O8        1.0  0.66300  0.76600  0.52500  1.0000
  O   O9        1.0  0.33700  0.23400  0.44900  1.0000
  O   O10       1.0  0.66300  0.76600  0.94900  1.0000
  O   O11       1.0  0.16300  0.73400  0.94900  1.0000
  O   O12       1.0  0.83700  0.26600  0.44900  1.0000
  O   O13       1.0  0.55200  0.22700  0.23700  1.0000
  O   O14       1.0  0.44800  0.77300  0.73700  1.0000
  O   O15       1.0  0.94800  0.72700  0.73700  1.0000
  O   O16       1.0  0.05230  0.27300  0.23700  1.0000
