data_image0
_chemical_formula_structural       Ca6Cu2O12Rh2
_chemical_formula_sum              "Ca6 Cu2 O12 Rh2"
_cell_length_a       6.43687
_cell_length_b       6.43687
_cell_length_c       6.42252
_cell_angle_alpha    89.3971
_cell_angle_beta     90.6029
_cell_angle_gamma    88.6325

_space_group_name_H-M_alt    "P 1"
_space_group_IT_number       1

loop_
  _space_group_symop_operation_xyz
  'x, y, z'

loop_
  _atom_site_type_symbol
  _atom_site_label
  _atom_site_symmetry_multiplicity
  _atom_site_fract_x
  _atom_site_fract_y
  _atom_site_fract_z
  _atom_site_occupancy
  Ca  Ca1       1.0  0.23800  0.61200  0.62300  1.0000
  Ca  Ca2       1.0  0.61200  0.23800  0.87700  1.0000
  Ca  Ca3       1.0  0.76100  0.38800  0.37700  1.0000
  Ca  Ca4       1.0  0.38800  0.76100  0.12300  1.0000
  Ca  Ca5       1.0  0.89800  0.89800  0.25000  1.0000
  Ca  Ca6       1.0  0.10200  0.10200  0.75000  1.0000
  Cu  Cu1       1.0  0.30900  0.30900  0.25000  1.0000
  Cu  Cu2       1.0  0.69100  0.69100  0.75000  1.0000
  O   O1        1.0  0.59900  0.70500  0.45500  1.0000
  O   O2        1.0  0.70500  0.59900  0.04520  1.0000
  O   O3        1.0  0.40100  0.29600  0.54500  1.0000
  O   O4        1.0  0.29600  0.40100  0.95500  1.0000
  O   O5        1.0  0.53100  0.10000  0.20400  1.0000
  O   O6        1.0  0.10000  0.53100  0.29600  1.0000
  O   O7        1.0  0.46900  0.90000  0.79600  1.0000
  O   O8        1.0  0.90000  0.46900  0.70400  1.0000
  O   O9        1.0  0.20700  0.92500  0.43400  1.0000
  O   O10       1.0  0.92500  0.20700  0.06640  1.0000
  O   O11       1.0  0.79300  0.07490  0.56600  1.0000
  O   O12       1.0  0.07490  0.79300  0.93400  1.0000
  Rh  Rh1       1.0  0.50000  0.00005  0.50000  1.0000
  Rh  Rh2       1.0  0.00004  0.50000  0.00002  1.0000
