data_image0
_chemical_formula_structural       Ge16La20
_chemical_formula_sum              "Ge16 La20"
_cell_length_a       8.08706
_cell_length_b       15.4812
_cell_length_c       8.18027
_cell_angle_alpha    90
_cell_angle_beta     90
_cell_angle_gamma    90

_space_group_name_H-M_alt    "P 1"
_space_group_IT_number       1

loop_
  _space_group_symop_operation_xyz
  'x, y, z'

loop_
  _atom_site_type_symbol
  _atom_site_label
  _atom_site_symmetry_multiplicity
  _atom_site_fract_x
  _atom_site_fract_y
  _atom_site_fract_z
  _atom_site_occupancy
  Ge  Ge1       1.0  0.22200  0.95600  0.46600  1.0000
  Ge  Ge2       1.0  0.27800  0.04440  0.96600  1.0000
  Ge  Ge3       1.0  0.72200  0.54400  0.03400  1.0000
  Ge  Ge4       1.0  0.77800  0.45600  0.53400  1.0000
  Ge  Ge5       1.0  0.77800  0.04440  0.53400  1.0000
  Ge  Ge6       1.0  0.72200  0.95600  0.03400  1.0000
  Ge  Ge7       1.0  0.27800  0.45600  0.96600  1.0000
  Ge  Ge8       1.0  0.22200  0.54400  0.46600  1.0000
  Ge  Ge9       1.0  0.91400  0.25000  0.89800  1.0000
  Ge  Ge10      1.0  0.58600  0.75000  0.39800  1.0000
  Ge  Ge11      1.0  0.41400  0.25000  0.60200  1.0000
  Ge  Ge12      1.0  0.08630  0.75000  0.10200  1.0000
  Ge  Ge13      1.0  0.18200  0.25000  0.36700  1.0000
  Ge  Ge14      1.0  0.31800  0.75000  0.86700  1.0000
  Ge  Ge15      1.0  0.68200  0.25000  0.13300  1.0000
  Ge  Ge16      1.0  0.81800  0.75000  0.63300  1.0000
  La  La1       1.0  0.29000  0.25000  0.99500  1.0000
  La  La2       1.0  0.21000  0.75000  0.49500  1.0000
  La  La3       1.0  0.79000  0.25000  0.50500  1.0000
  La  La4       1.0  0.71000  0.75000  0.00528  1.0000
  La  La5       1.0  0.98000  0.10100  0.18200  1.0000
  La  La6       1.0  0.52000  0.89900  0.68200  1.0000
  La  La7       1.0  0.48000  0.39900  0.31800  1.0000
  La  La8       1.0  0.02050  0.60100  0.81800  1.0000
  La  La9       1.0  0.02050  0.89900  0.81800  1.0000
  La  La10      1.0  0.48000  0.10100  0.31800  1.0000
  La  La11      1.0  0.52000  0.60100  0.68200  1.0000
  La  La12      1.0  0.98000  0.39900  0.18200  1.0000
  La  La13      1.0  0.38000  0.88600  0.15900  1.0000
  La  La14      1.0  0.12000  0.11400  0.65900  1.0000
  La  La15      1.0  0.88000  0.61400  0.34100  1.0000
  La  La16      1.0  0.62000  0.38600  0.84100  1.0000
  La  La17      1.0  0.62000  0.11400  0.84100  1.0000
  La  La18      1.0  0.88000  0.88600  0.34100  1.0000
  La  La19      1.0  0.12000  0.38600  0.65900  1.0000
  La  La20      1.0  0.38000  0.61400  0.15900  1.0000
