data_image0
_chemical_formula_structural       Ba6Cr4S12
_chemical_formula_sum              "Ba6 Cr4 S12"
_cell_length_a       8.10275
_cell_length_b       8.10275
_cell_length_c       8.10275
_cell_angle_alpha    94.5298
_cell_angle_beta     94.5298
_cell_angle_gamma    94.5298

_space_group_name_H-M_alt    "P 1"
_space_group_IT_number       1

loop_
  _space_group_symop_operation_xyz
  'x, y, z'

loop_
  _atom_site_type_symbol
  _atom_site_label
  _atom_site_symmetry_multiplicity
  _atom_site_fract_x
  _atom_site_fract_y
  _atom_site_fract_z
  _atom_site_occupancy
  Ba  Ba1       1.0  0.36400  0.75000  0.13600  1.0000
  Ba  Ba2       1.0  0.13600  0.36400  0.75000  1.0000
  Ba  Ba3       1.0  0.75000  0.13600  0.36400  1.0000
  Ba  Ba4       1.0  0.63600  0.25000  0.86400  1.0000
  Ba  Ba5       1.0  0.86400  0.63600  0.25000  1.0000
  Ba  Ba6       1.0  0.25000  0.86400  0.63600  1.0000
  Cr  Cr1       1.0  0.50000  0.50000  0.50000  1.0000
  Cr  Cr2       1.0  0.00000  0.00000  0.00000  1.0000
  Cr  Cr3       1.0  0.25000  0.25000  0.25000  1.0000
  Cr  Cr4       1.0  0.75000  0.75000  0.75000  1.0000
  S   S1        1.0  0.40800  0.20900  0.51800  1.0000
  S   S2        1.0  0.51800  0.40800  0.20900  1.0000
  S   S3        1.0  0.20900  0.51800  0.40800  1.0000
  S   S4        1.0  0.29100  0.09190  0.98200  1.0000
  S   S5        1.0  0.09190  0.98200  0.29100  1.0000
  S   S6        1.0  0.98200  0.29100  0.09190  1.0000
  S   S7        1.0  0.59200  0.79100  0.48200  1.0000
  S   S8        1.0  0.48200  0.59200  0.79100  1.0000
  S   S9        1.0  0.79100  0.48200  0.59200  1.0000
  S   S10       1.0  0.70900  0.90800  0.01790  1.0000
  S   S11       1.0  0.90800  0.01790  0.70900  1.0000
  S   S12       1.0  0.01790  0.70900  0.90800  1.0000
