data_image0
_chemical_formula_structural       Co2Cu4O14Sr4Y2
_chemical_formula_sum              "Co2 Cu4 O14 Sr4 Y2"
_cell_length_a       11.8279
_cell_length_b       11.8279
_cell_length_c       11.8279
_cell_angle_alpha    37.339
_cell_angle_beta     153.731
_cell_angle_gamma    153.94

_space_group_name_H-M_alt    "P 1"
_space_group_IT_number       1

loop_
  _space_group_symop_operation_xyz
  'x, y, z'

loop_
  _atom_site_type_symbol
  _atom_site_label
  _atom_site_symmetry_multiplicity
  _atom_site_fract_x
  _atom_site_fract_y
  _atom_site_fract_z
  _atom_site_occupancy
  Co  Co1       1.0  0.42400  0.23300  0.69000  1.0000
  Co  Co2       1.0  0.54300  0.73300  0.31000  1.0000
  Cu  Cu1       1.0  0.51300  0.94000  0.42700  1.0000
  Cu  Cu2       1.0  0.51300  0.08570  0.57300  1.0000
  Cu  Cu3       1.0  0.51300  0.58600  0.07270  1.0000
  Cu  Cu4       1.0  0.51300  0.44000  0.92700  1.0000
  O   O1        1.0  0.57100  0.36300  0.86000  1.0000
  O   O2        1.0  0.50300  0.71100  0.14000  1.0000
  O   O3        1.0  0.57100  0.21100  0.70800  1.0000
  O   O4        1.0  0.50300  0.86300  0.29200  1.0000
  O   O5        1.0  0.01320  0.19800  0.68400  1.0000
  O   O6        1.0  0.51300  0.32900  0.31600  1.0000
  O   O7        1.0  0.01320  0.82900  0.31600  1.0000
  O   O8        1.0  0.51300  0.69800  0.68400  1.0000
  O   O9        1.0  0.01350  0.69900  0.19000  1.0000
  O   O10       1.0  0.50900  0.82400  0.81000  1.0000
  O   O11       1.0  0.01350  0.32400  0.81500  1.0000
  O   O12       1.0  0.50900  0.19900  0.18500  1.0000
  O   O13       1.0  0.23200  0.37400  0.35900  1.0000
  O   O14       1.0  0.01500  0.87400  0.64100  1.0000
  Sr  Sr1       1.0  0.00523  0.36200  0.34100  1.0000
  Sr  Sr2       1.0  0.02060  0.66400  0.65900  1.0000
  Sr  Sr3       1.0  0.00523  0.16400  0.14300  1.0000
  Sr  Sr4       1.0  0.02060  0.86200  0.85700  1.0000
  Y   Y1        1.0  0.01190  0.01190  0.00000  1.0000
  Y   Y2        1.0  0.01190  0.51200  0.50000  1.0000
