data_image0
_chemical_formula_structural       F6K2Rh
_chemical_formula_sum              "F6 K2 Rh1"
_cell_length_a       5.56263
_cell_length_b       5.56265
_cell_length_c       4.4479
_cell_angle_alpha    90.0002
_cell_angle_beta     89.9992
_cell_angle_gamma    120.001

_space_group_name_H-M_alt    "P 1"
_space_group_IT_number       1

loop_
  _space_group_symop_operation_xyz
  'x, y, z'

loop_
  _atom_site_type_symbol
  _atom_site_label
  _atom_site_symmetry_multiplicity
  _atom_site_fract_x
  _atom_site_fract_y
  _atom_site_fract_z
  _atom_site_occupancy
  F   F1        1.0  0.66400  0.83200  0.23800  1.0000
  F   F2        1.0  0.16800  0.33600  0.23800  1.0000
  F   F3        1.0  0.16800  0.83200  0.23800  1.0000
  F   F4        1.0  0.83200  0.16800  0.76200  1.0000
  F   F5        1.0  0.83200  0.66400  0.76200  1.0000
  F   F6        1.0  0.33600  0.16800  0.76200  1.0000
  K   K1        1.0  0.66700  0.33300  0.28300  1.0000
  K   K2        1.0  0.33300  0.66700  0.71700  1.0000
  Rh  Rh1       1.0  0.00000  0.00000  0.00000  1.0000
