data_image0
_chemical_formula_structural       B8Ca8Li8O24
_chemical_formula_sum              "B8 Ca8 Li8 O24"
_cell_length_a       13.1099
_cell_length_b       5.98611
_cell_length_c       5.93276
_cell_angle_alpha    90
_cell_angle_beta     90
_cell_angle_gamma    90

_space_group_name_H-M_alt    "P 1"
_space_group_IT_number       1

loop_
  _space_group_symop_operation_xyz
  'x, y, z'

loop_
  _atom_site_type_symbol
  _atom_site_label
  _atom_site_symmetry_multiplicity
  _atom_site_fract_x
  _atom_site_fract_y
  _atom_site_fract_z
  _atom_site_occupancy
  B   B1        1.0  0.14900  0.50100  0.25200  1.0000
  B   B2        1.0  0.35100  0.49900  0.75200  1.0000
  B   B3        1.0  0.64900  0.99900  0.74800  1.0000
  B   B4        1.0  0.85100  0.00125  0.24800  1.0000
  B   B5        1.0  0.85100  0.49900  0.74800  1.0000
  B   B6        1.0  0.64900  0.50100  0.24800  1.0000
  B   B7        1.0  0.35100  0.00125  0.25200  1.0000
  B   B8        1.0  0.14900  0.99900  0.75200  1.0000
  Ca  Ca1       1.0  0.43200  0.50100  0.25100  1.0000
  Ca  Ca2       1.0  0.06820  0.49900  0.75100  1.0000
  Ca  Ca3       1.0  0.93200  0.99900  0.74900  1.0000
  Ca  Ca4       1.0  0.56800  0.00097  0.24900  1.0000
  Ca  Ca5       1.0  0.56800  0.49900  0.74900  1.0000
  Ca  Ca6       1.0  0.93200  0.50100  0.24900  1.0000
  Ca  Ca7       1.0  0.06820  0.00097  0.25100  1.0000
  Ca  Ca8       1.0  0.43200  0.99900  0.75100  1.0000
  Li  Li1       1.0  0.25000  0.73200  0.50300  1.0000
  Li  Li2       1.0  0.25000  0.26800  0.00295  1.0000
  Li  Li3       1.0  0.75000  0.76800  0.49700  1.0000
  Li  Li4       1.0  0.75000  0.23200  0.99700  1.0000
  Li  Li5       1.0  0.75000  0.26800  0.49700  1.0000
  Li  Li6       1.0  0.75000  0.73200  0.99700  1.0000
  Li  Li7       1.0  0.25000  0.23200  0.50300  1.0000
  Li  Li8       1.0  0.25000  0.76800  0.00295  1.0000
  O   O1        1.0  0.40400  0.14200  0.39500  1.0000
  O   O2        1.0  0.09560  0.85800  0.89500  1.0000
  O   O3        1.0  0.90400  0.35800  0.60500  1.0000
  O   O4        1.0  0.59600  0.64200  0.10500  1.0000
  O   O5        1.0  0.59600  0.85800  0.60500  1.0000
  O   O6        1.0  0.90400  0.14200  0.10500  1.0000
  O   O7        1.0  0.09560  0.64200  0.39500  1.0000
  O   O8        1.0  0.40400  0.35800  0.89500  1.0000
  O   O9        1.0  0.40400  0.86000  0.11000  1.0000
  O   O10       1.0  0.09570  0.14000  0.61000  1.0000
  O   O11       1.0  0.90400  0.64000  0.89000  1.0000
  O   O12       1.0  0.59600  0.36000  0.39000  1.0000
  O   O13       1.0  0.59600  0.14000  0.89000  1.0000
  O   O14       1.0  0.90400  0.86000  0.39000  1.0000
  O   O15       1.0  0.09570  0.36000  0.11000  1.0000
  O   O16       1.0  0.40400  0.64000  0.61000  1.0000
  O   O17       1.0  0.25400  0.50100  0.25200  1.0000
  O   O18       1.0  0.24600  0.49900  0.75200  1.0000
  O   O19       1.0  0.75400  0.99900  0.74800  1.0000
  O   O20       1.0  0.74600  0.00127  0.24800  1.0000
  O   O21       1.0  0.74600  0.49900  0.74800  1.0000
  O   O22       1.0  0.75400  0.50100  0.24800  1.0000
  O   O23       1.0  0.24600  0.00127  0.25200  1.0000
  O   O24       1.0  0.25400  0.99900  0.75200  1.0000
