data_image0
_chemical_formula_structural       F40K20Li8Nd4
_chemical_formula_sum              "F40 K20 Li8 Nd4"
_cell_length_a       18.6214
_cell_length_b       7.44507
_cell_length_c       6.40306
_cell_angle_alpha    90
_cell_angle_beta     90
_cell_angle_gamma    90

_space_group_name_H-M_alt    "P 1"
_space_group_IT_number       1

loop_
  _space_group_symop_operation_xyz
  'x, y, z'

loop_
  _atom_site_type_symbol
  _atom_site_label
  _atom_site_symmetry_multiplicity
  _atom_site_fract_x
  _atom_site_fract_y
  _atom_site_fract_z
  _atom_site_occupancy
  F   F1        1.0  0.00793  0.25000  0.03970  1.0000
  F   F2        1.0  0.49200  0.75000  0.54000  1.0000
  F   F3        1.0  0.50800  0.25000  0.46000  1.0000
  F   F4        1.0  0.99200  0.75000  0.96000  1.0000
  F   F5        1.0  0.01140  0.25000  0.47600  1.0000
  F   F6        1.0  0.48900  0.75000  0.97600  1.0000
  F   F7        1.0  0.51100  0.25000  0.02400  1.0000
  F   F8        1.0  0.98900  0.75000  0.52400  1.0000
  F   F9        1.0  0.09120  0.96100  0.15800  1.0000
  F   F10       1.0  0.40900  0.03900  0.65800  1.0000
  F   F11       1.0  0.59100  0.53900  0.34200  1.0000
  F   F12       1.0  0.90900  0.46100  0.84200  1.0000
  F   F13       1.0  0.90900  0.03900  0.84200  1.0000
  F   F14       1.0  0.59100  0.96100  0.34200  1.0000
  F   F15       1.0  0.40900  0.46100  0.65800  1.0000
  F   F16       1.0  0.09120  0.53900  0.15800  1.0000
  F   F17       1.0  0.15300  0.06640  0.51800  1.0000
  F   F18       1.0  0.34700  0.93400  0.01820  1.0000
  F   F19       1.0  0.65300  0.43400  0.98200  1.0000
  F   F20       1.0  0.84700  0.56600  0.48200  1.0000
  F   F21       1.0  0.84700  0.93400  0.48200  1.0000
  F   F22       1.0  0.65300  0.06640  0.98200  1.0000
  F   F23       1.0  0.34700  0.56600  0.01820  1.0000
  F   F24       1.0  0.15300  0.43400  0.51800  1.0000
  F   F25       1.0  0.23000  0.25000  0.17400  1.0000
  F   F26       1.0  0.27000  0.75000  0.67400  1.0000
  F   F27       1.0  0.73000  0.25000  0.32600  1.0000
  F   F28       1.0  0.77000  0.75000  0.82600  1.0000
  F   F29       1.0  0.37200  0.25000  0.31100  1.0000
  F   F30       1.0  0.12800  0.75000  0.81100  1.0000
  F   F31       1.0  0.87200  0.25000  0.18900  1.0000
  F   F32       1.0  0.62800  0.75000  0.68900  1.0000
  F   F33       1.0  0.77500  0.25000  0.80200  1.0000
  F   F34       1.0  0.72500  0.75000  0.30200  1.0000
  F   F35       1.0  0.27500  0.25000  0.69800  1.0000
  F   F36       1.0  0.22500  0.75000  0.19800  1.0000
  F   F37       1.0  0.63200  0.25000  0.61000  1.0000
  F   F38       1.0  0.86800  0.75000  0.11000  1.0000
  F   F39       1.0  0.13200  0.25000  0.89000  1.0000
  F   F40       1.0  0.36800  0.75000  0.39000  1.0000
  K   K1        1.0  0.37100  0.25000  0.94500  1.0000
  K   K2        1.0  0.12900  0.75000  0.44500  1.0000
  K   K3        1.0  0.87100  0.25000  0.55500  1.0000
  K   K4        1.0  0.62900  0.75000  0.05460  1.0000
  K   K5        1.0  0.28300  0.01920  0.41400  1.0000
  K   K6        1.0  0.21700  0.98100  0.91400  1.0000
  K   K7        1.0  0.78300  0.48100  0.08570  1.0000
  K   K8        1.0  0.71700  0.51900  0.58600  1.0000
  K   K9        1.0  0.71700  0.98100  0.58600  1.0000
  K   K10       1.0  0.78300  0.01920  0.08570  1.0000
  K   K11       1.0  0.21700  0.51900  0.91400  1.0000
  K   K12       1.0  0.28300  0.48100  0.41400  1.0000
  K   K13       1.0  0.45700  0.98000  0.25400  1.0000
  K   K14       1.0  0.04330  0.01960  0.75400  1.0000
  K   K15       1.0  0.95700  0.52000  0.24600  1.0000
  K   K16       1.0  0.54300  0.48000  0.74600  1.0000
  K   K17       1.0  0.54300  0.01960  0.74600  1.0000
  K   K18       1.0  0.95700  0.98000  0.24600  1.0000
  K   K19       1.0  0.04330  0.48000  0.75400  1.0000
  K   K20       1.0  0.45700  0.52000  0.25400  1.0000
  Li  Li1       1.0  0.91700  0.25000  0.95800  1.0000
  Li  Li2       1.0  0.58300  0.75000  0.45800  1.0000
  Li  Li3       1.0  0.41700  0.25000  0.54200  1.0000
  Li  Li4       1.0  0.08310  0.75000  0.04230  1.0000
  Li  Li5       1.0  0.68300  0.25000  0.83600  1.0000
  Li  Li6       1.0  0.81700  0.75000  0.33600  1.0000
  Li  Li7       1.0  0.18300  0.25000  0.66400  1.0000
  Li  Li8       1.0  0.31700  0.75000  0.16400  1.0000
  Nd  Nd1       1.0  0.11000  0.25000  0.24700  1.0000
  Nd  Nd2       1.0  0.39000  0.75000  0.74700  1.0000
  Nd  Nd3       1.0  0.61000  0.25000  0.25300  1.0000
  Nd  Nd4       1.0  0.89000  0.75000  0.75300  1.0000
