data_image0
_chemical_formula_structural       Ba6O30Si12
_chemical_formula_sum              "Ba6 O30 Si12"
_cell_length_a       11.5703
_cell_length_b       11.5703
_cell_length_c       13.3764
_cell_angle_alpha    81.7841
_cell_angle_beta     98.2159
_cell_angle_gamma    157.71

_space_group_name_H-M_alt    "P 1"
_space_group_IT_number       1

loop_
  _space_group_symop_operation_xyz
  'x, y, z'

loop_
  _atom_site_type_symbol
  _atom_site_label
  _atom_site_symmetry_multiplicity
  _atom_site_fract_x
  _atom_site_fract_y
  _atom_site_fract_z
  _atom_site_occupancy
  Ba  Ba1       1.0  0.73700  0.40700  0.94400  1.0000
  Ba  Ba2       1.0  0.40700  0.73700  0.55600  1.0000
  Ba  Ba3       1.0  0.26300  0.59300  0.05620  1.0000
  Ba  Ba4       1.0  0.59300  0.26300  0.44400  1.0000
  Ba  Ba5       1.0  0.00000  1.00000  0.50000  1.0000
  Ba  Ba6       1.0  0.00000  0.00000  0.00000  1.0000
  O   O1        1.0  0.75500  0.28200  0.78600  1.0000
  O   O2        1.0  0.28200  0.75500  0.71400  1.0000
  O   O3        1.0  0.24500  0.71800  0.21400  1.0000
  O   O4        1.0  0.71800  0.24500  0.28600  1.0000
  O   O5        1.0  0.81800  0.28100  0.59200  1.0000
  O   O6        1.0  0.28100  0.81800  0.90800  1.0000
  O   O7        1.0  0.18200  0.71900  0.40800  1.0000
  O   O8        1.0  0.71900  0.18200  0.09190  1.0000
  O   O9        1.0  0.92100  0.58900  0.63200  1.0000
  O   O10       1.0  0.58900  0.92100  0.86800  1.0000
  O   O11       1.0  0.07900  0.41100  0.36800  1.0000
  O   O12       1.0  0.41100  0.07900  0.13200  1.0000
  O   O13       1.0  0.54000  0.39900  0.54900  1.0000
  O   O14       1.0  0.39900  0.54000  0.95100  1.0000
  O   O15       1.0  0.46000  0.60100  0.45100  1.0000
  O   O16       1.0  0.60100  0.46000  0.04890  1.0000
  O   O17       1.0  0.94700  0.82400  0.68600  1.0000
  O   O18       1.0  0.82400  0.94700  0.81400  1.0000
  O   O19       1.0  0.05330  0.17600  0.31400  1.0000
  O   O20       1.0  0.17600  0.05330  0.18600  1.0000
  O   O21       1.0  0.50400  0.27500  0.74900  1.0000
  O   O22       1.0  0.27500  0.50400  0.75100  1.0000
  O   O23       1.0  0.49600  0.72500  0.25100  1.0000
  O   O24       1.0  0.72500  0.49600  0.24900  1.0000
  O   O25       1.0  0.11100  0.93600  0.88700  1.0000
  O   O26       1.0  0.93600  0.11100  0.61300  1.0000
  O   O27       1.0  0.88900  0.06370  0.11300  1.0000
  O   O28       1.0  0.06370  0.88900  0.38700  1.0000
  O   O29       1.0  0.29900  0.29900  0.75000  1.0000
  O   O30       1.0  0.70100  0.70100  0.25000  1.0000
  Si  Si1       1.0  0.92700  0.45500  0.67800  1.0000
  Si  Si2       1.0  0.45500  0.92700  0.82200  1.0000
  Si  Si3       1.0  0.07310  0.54500  0.32200  1.0000
  Si  Si4       1.0  0.54500  0.07310  0.17800  1.0000
  Si  Si5       1.0  0.71400  0.51000  0.65100  1.0000
  Si  Si6       1.0  0.51000  0.71400  0.84900  1.0000
  Si  Si7       1.0  0.28600  0.49000  0.34900  1.0000
  Si  Si8       1.0  0.49000  0.28600  0.15100  1.0000
  Si  Si9       1.0  0.20400  0.07150  0.77500  1.0000
  Si  Si10      1.0  0.07150  0.20400  0.72500  1.0000
  Si  Si11      1.0  0.79600  0.92800  0.22500  1.0000
  Si  Si12      1.0  0.92800  0.79600  0.27500  1.0000
