data_image0
_chemical_formula_structural       Co10Ga2Y10
_chemical_formula_sum              "Co10 Ga2 Y10"
_cell_length_a       5.43354
_cell_length_b       5.43354
_cell_length_c       20.3951
_cell_angle_alpha    90
_cell_angle_beta     90
_cell_angle_gamma    43.7922

_space_group_name_H-M_alt    "P 1"
_space_group_IT_number       1

loop_
  _space_group_symop_operation_xyz
  'x, y, z'

loop_
  _atom_site_type_symbol
  _atom_site_label
  _atom_site_symmetry_multiplicity
  _atom_site_fract_x
  _atom_site_fract_y
  _atom_site_fract_z
  _atom_site_occupancy
  Co  Co1       1.0  0.59000  0.59000  0.25000  1.0000
  Co  Co2       1.0  0.41000  0.41000  0.75000  1.0000
  Co  Co3       1.0  0.58200  0.58200  0.05860  1.0000
  Co  Co4       1.0  0.41800  0.41800  0.55900  1.0000
  Co  Co5       1.0  0.41800  0.41800  0.94100  1.0000
  Co  Co6       1.0  0.58200  0.58200  0.44100  1.0000
  Co  Co7       1.0  0.70500  0.70500  0.15300  1.0000
  Co  Co8       1.0  0.29500  0.29500  0.65300  1.0000
  Co  Co9       1.0  0.29500  0.29500  0.84700  1.0000
  Co  Co10      1.0  0.70500  0.70500  0.34700  1.0000
  Ga  Ga1       1.0  0.00000  0.00000  0.00000  1.0000
  Ga  Ga2       1.0  0.00000  0.00000  0.50000  1.0000
  Y   Y1        1.0  0.29100  0.29100  0.25000  1.0000
  Y   Y2        1.0  0.70900  0.70900  0.75000  1.0000
  Y   Y3        1.0  0.29300  0.29300  0.06540  1.0000
  Y   Y4        1.0  0.70700  0.70700  0.56500  1.0000
  Y   Y5        1.0  0.70700  0.70700  0.93500  1.0000
  Y   Y6        1.0  0.29300  0.29300  0.43500  1.0000
  Y   Y7        1.0  0.00210  0.00210  0.15700  1.0000
  Y   Y8        1.0  0.99800  0.99800  0.65700  1.0000
  Y   Y9        1.0  0.99800  0.99800  0.84300  1.0000
  Y   Y10       1.0  0.00210  0.00210  0.34300  1.0000
