data_image0
_chemical_formula_structural       Cu24Pr4
_chemical_formula_sum              "Cu24 Pr4"
_cell_length_a       4.91683
_cell_length_b       9.83787
_cell_length_c       7.85974
_cell_angle_alpha    89.9993
_cell_angle_beta     91.2939
_cell_angle_gamma    89.9987

_space_group_name_H-M_alt    "P 1"
_space_group_IT_number       1

loop_
  _space_group_symop_operation_xyz
  'x, y, z'

loop_
  _atom_site_type_symbol
  _atom_site_label
  _atom_site_symmetry_multiplicity
  _atom_site_fract_x
  _atom_site_fract_y
  _atom_site_fract_z
  _atom_site_occupancy
  Cu  Cu1       1.0  0.25100  0.51700  0.90000  1.0000
  Cu  Cu2       1.0  0.74900  0.01660  0.60000  1.0000
  Cu  Cu3       1.0  0.74900  0.48300  0.10000  1.0000
  Cu  Cu4       1.0  0.25100  0.98300  0.40000  1.0000
  Cu  Cu5       1.0  0.23000  0.59400  0.56300  1.0000
  Cu  Cu6       1.0  0.77000  0.09390  0.93700  1.0000
  Cu  Cu7       1.0  0.77000  0.40600  0.43700  1.0000
  Cu  Cu8       1.0  0.23000  0.90600  0.06260  1.0000
  Cu  Cu9       1.0  0.24900  0.75800  0.81800  1.0000
  Cu  Cu10      1.0  0.75100  0.25800  0.68200  1.0000
  Cu  Cu11      1.0  0.75100  0.24200  0.18200  1.0000
  Cu  Cu12      1.0  0.24900  0.74200  0.31800  1.0000
  Cu  Cu13      1.0  0.24900  0.14400  0.14500  1.0000
  Cu  Cu14      1.0  0.75100  0.64400  0.35500  1.0000
  Cu  Cu15      1.0  0.75100  0.85600  0.85500  1.0000
  Cu  Cu16      1.0  0.24900  0.35600  0.64500  1.0000
  Cu  Cu17      1.0  0.49600  0.19400  0.43300  1.0000
  Cu  Cu18      1.0  0.50400  0.69400  0.06690  1.0000
  Cu  Cu19      1.0  0.50400  0.80600  0.56700  1.0000
  Cu  Cu20      1.0  0.49600  0.30600  0.93300  1.0000
  Cu  Cu21      1.0  0.00678  0.18900  0.43700  1.0000
  Cu  Cu22      1.0  0.99300  0.68900  0.06340  1.0000
  Cu  Cu23      1.0  0.99300  0.81100  0.56300  1.0000
  Cu  Cu24      1.0  0.00677  0.31100  0.93700  1.0000
  Pr  Pr1       1.0  0.25700  0.43600  0.26000  1.0000
  Pr  Pr2       1.0  0.74300  0.93600  0.24000  1.0000
  Pr  Pr3       1.0  0.74300  0.56400  0.74000  1.0000
  Pr  Pr4       1.0  0.25700  0.06350  0.76000  1.0000
