data_image0
_chemical_formula_structural       Ca8Mn4O14
_chemical_formula_sum              "Ca8 Mn4 O14"
_cell_length_a       6.63144
_cell_length_b       9.87172
_cell_length_c       6.63144
_cell_angle_alpha    90
_cell_angle_beta     133.318
_cell_angle_gamma    90

_space_group_name_H-M_alt    "P 1"
_space_group_IT_number       1

loop_
  _space_group_symop_operation_xyz
  'x, y, z'

loop_
  _atom_site_type_symbol
  _atom_site_label
  _atom_site_symmetry_multiplicity
  _atom_site_fract_x
  _atom_site_fract_y
  _atom_site_fract_z
  _atom_site_occupancy
  Ca  Ca1       1.0  0.64300  0.12600  0.94800  1.0000
  Ca  Ca2       1.0  0.05230  0.87400  0.35700  1.0000
  Ca  Ca3       1.0  0.44800  0.37400  0.14300  1.0000
  Ca  Ca4       1.0  0.85700  0.62600  0.55200  1.0000
  Ca  Ca5       1.0  0.35700  0.87400  0.05230  1.0000
  Ca  Ca6       1.0  0.94800  0.12600  0.64300  1.0000
  Ca  Ca7       1.0  0.55200  0.62600  0.85700  1.0000
  Ca  Ca8       1.0  0.14300  0.37400  0.44800  1.0000
  Mn  Mn1       1.0  0.27900  0.12200  0.27900  1.0000
  Mn  Mn2       1.0  0.72100  0.87800  0.72100  1.0000
  Mn  Mn3       1.0  0.77900  0.37800  0.77900  1.0000
  Mn  Mn4       1.0  0.22100  0.62200  0.22100  1.0000
  O   O1        1.0  0.00000  0.00000  0.00000  1.0000
  O   O2        1.0  0.50000  0.50000  0.50000  1.0000
  O   O3        1.0  0.09660  0.30100  0.09660  1.0000
  O   O4        1.0  0.90300  0.69900  0.90300  1.0000
  O   O5        1.0  0.59700  0.19900  0.59700  1.0000
  O   O6        1.0  0.40300  0.80100  0.40300  1.0000
  O   O7        1.0  0.11500  0.11900  0.43900  1.0000
  O   O8        1.0  0.56100  0.88100  0.88500  1.0000
  O   O9        1.0  0.93900  0.38100  0.61500  1.0000
  O   O10       1.0  0.38500  0.61900  0.06130  1.0000
  O   O11       1.0  0.88500  0.88100  0.56100  1.0000
  O   O12       1.0  0.43900  0.11900  0.11500  1.0000
  O   O13       1.0  0.06130  0.61900  0.38500  1.0000
  O   O14       1.0  0.61500  0.38100  0.93900  1.0000
