data_image0
_chemical_formula_structural       Ga20Ir12
_chemical_formula_sum              "Ga20 Ir12"
_cell_length_a       5.85953
_cell_length_b       5.85953
_cell_length_c       14.9597
_cell_angle_alpha    90
_cell_angle_beta     90
_cell_angle_gamma    90

_space_group_name_H-M_alt    "P 1"
_space_group_IT_number       1

loop_
  _space_group_symop_operation_xyz
  'x, y, z'

loop_
  _atom_site_type_symbol
  _atom_site_label
  _atom_site_symmetry_multiplicity
  _atom_site_fract_x
  _atom_site_fract_y
  _atom_site_fract_z
  _atom_site_occupancy
  Ga  Ga1       1.0  0.17200  0.18300  0.15400  1.0000
  Ga  Ga2       1.0  0.82800  0.81700  0.15400  1.0000
  Ga  Ga3       1.0  0.31700  0.32800  0.34600  1.0000
  Ga  Ga4       1.0  0.68300  0.67200  0.34600  1.0000
  Ga  Ga5       1.0  0.32800  0.68300  0.65400  1.0000
  Ga  Ga6       1.0  0.67200  0.31700  0.65400  1.0000
  Ga  Ga7       1.0  0.81700  0.17200  0.84600  1.0000
  Ga  Ga8       1.0  0.18300  0.82800  0.84600  1.0000
  Ga  Ga9       1.0  0.65600  0.23700  0.05760  1.0000
  Ga  Ga10      1.0  0.34400  0.76300  0.05760  1.0000
  Ga  Ga11      1.0  0.26300  0.84400  0.44200  1.0000
  Ga  Ga12      1.0  0.73700  0.15600  0.44200  1.0000
  Ga  Ga13      1.0  0.84400  0.73700  0.55800  1.0000
  Ga  Ga14      1.0  0.15600  0.26300  0.55800  1.0000
  Ga  Ga15      1.0  0.76300  0.65600  0.94200  1.0000
  Ga  Ga16      1.0  0.23700  0.34400  0.94200  1.0000
  Ga  Ga17      1.0  0.68200  0.18200  0.25000  1.0000
  Ga  Ga18      1.0  0.31800  0.81800  0.25000  1.0000
  Ga  Ga19      1.0  0.81800  0.68200  0.75000  1.0000
  Ga  Ga20      1.0  0.18200  0.31800  0.75000  1.0000
  Ir  Ir1       1.0  0.00000  0.00000  0.00000  1.0000
  Ir  Ir2       1.0  0.50000  0.50000  0.50000  1.0000
  Ir  Ir3       1.0  0.00000  0.50000  0.25000  1.0000
  Ir  Ir4       1.0  0.50000  0.00000  0.75000  1.0000
  Ir  Ir5       1.0  0.00000  0.00000  0.32500  1.0000
  Ir  Ir6       1.0  0.50000  0.50000  0.17500  1.0000
  Ir  Ir7       1.0  0.50000  0.50000  0.82500  1.0000
  Ir  Ir8       1.0  0.00000  0.00000  0.67500  1.0000
  Ir  Ir9       1.0  0.00000  0.50000  0.06230  1.0000
  Ir  Ir10      1.0  0.00000  0.50000  0.43800  1.0000
  Ir  Ir11      1.0  0.50000  0.00000  0.56200  1.0000
  Ir  Ir12      1.0  0.50000  0.00000  0.93800  1.0000
