data_image0
_chemical_formula_structural       Ga12Pr20
_chemical_formula_sum              "Ga12 Pr20"
_cell_length_a       7.94688
_cell_length_b       7.94688
_cell_length_c       14.4346
_cell_angle_alpha    90
_cell_angle_beta     90
_cell_angle_gamma    90

_space_group_name_H-M_alt    "P 1"
_space_group_IT_number       1

loop_
  _space_group_symop_operation_xyz
  'x, y, z'

loop_
  _atom_site_type_symbol
  _atom_site_label
  _atom_site_symmetry_multiplicity
  _atom_site_fract_x
  _atom_site_fract_y
  _atom_site_fract_z
  _atom_site_occupancy
  Ga  Ga1       1.0  0.11900  0.88100  0.25000  1.0000
  Ga  Ga2       1.0  0.88100  0.11900  0.25000  1.0000
  Ga  Ga3       1.0  0.61900  0.61900  0.25000  1.0000
  Ga  Ga4       1.0  0.38100  0.38100  0.25000  1.0000
  Ga  Ga5       1.0  0.11900  0.11900  0.75000  1.0000
  Ga  Ga6       1.0  0.88100  0.88100  0.75000  1.0000
  Ga  Ga7       1.0  0.61900  0.38100  0.75000  1.0000
  Ga  Ga8       1.0  0.38100  0.61900  0.75000  1.0000
  Ga  Ga9       1.0  0.00000  0.50000  0.99800  1.0000
  Ga  Ga10      1.0  0.50000  0.00000  0.50200  1.0000
  Ga  Ga11      1.0  0.50000  0.00000  0.00191  1.0000
  Ga  Ga12      1.0  0.00000  0.50000  0.49800  1.0000
  Pr  Pr1       1.0  0.00000  0.50000  0.28100  1.0000
  Pr  Pr2       1.0  0.50000  0.00000  0.21900  1.0000
  Pr  Pr3       1.0  0.50000  0.00000  0.71900  1.0000
  Pr  Pr4       1.0  0.00000  0.50000  0.78100  1.0000
  Pr  Pr5       1.0  0.15900  0.18400  0.10200  1.0000
  Pr  Pr6       1.0  0.84100  0.81600  0.10200  1.0000
  Pr  Pr7       1.0  0.65900  0.31600  0.39800  1.0000
  Pr  Pr8       1.0  0.34100  0.68400  0.39800  1.0000
  Pr  Pr9       1.0  0.81600  0.84100  0.39800  1.0000
  Pr  Pr10      1.0  0.18400  0.15900  0.39800  1.0000
  Pr  Pr11      1.0  0.68400  0.34100  0.10200  1.0000
  Pr  Pr12      1.0  0.31600  0.65900  0.10200  1.0000
  Pr  Pr13      1.0  0.34100  0.31600  0.89800  1.0000
  Pr  Pr14      1.0  0.65900  0.68400  0.89800  1.0000
  Pr  Pr15      1.0  0.84100  0.18400  0.60200  1.0000
  Pr  Pr16      1.0  0.15900  0.81600  0.60200  1.0000
  Pr  Pr17      1.0  0.68400  0.65900  0.60200  1.0000
  Pr  Pr18      1.0  0.31600  0.34100  0.60200  1.0000
  Pr  Pr19      1.0  0.81600  0.15900  0.89800  1.0000
  Pr  Pr20      1.0  0.18400  0.84100  0.89800  1.0000
