data_image0
_chemical_formula_structural       F6HgRh
_chemical_formula_sum              "F6 Hg1 Rh1"
_cell_length_a       4.92132
_cell_length_b       4.92132
_cell_length_c       5.57268
_cell_angle_alpha    116.203
_cell_angle_beta     90
_cell_angle_gamma    60

_space_group_name_H-M_alt    "P 1"
_space_group_IT_number       1

loop_
  _space_group_symop_operation_xyz
  'x, y, z'

loop_
  _atom_site_type_symbol
  _atom_site_label
  _atom_site_symmetry_multiplicity
  _atom_site_fract_x
  _atom_site_fract_y
  _atom_site_fract_z
  _atom_site_occupancy
  F   F1        1.0  0.20800  0.21300  0.23500  1.0000
  F   F2        1.0  0.97800  0.81400  0.23500  1.0000
  F   F3        1.0  0.57900  0.44300  0.23500  1.0000
  F   F4        1.0  0.42100  0.55700  0.76500  1.0000
  F   F5        1.0  0.02190  0.18600  0.76500  1.0000
  F   F6        1.0  0.79200  0.78700  0.76500  1.0000
  Hg  Hg1       1.0  0.50000  0.00000  0.50000  1.0000
  Rh  Rh1       1.0  0.00000  0.00000  0.00000  1.0000
