data_image0
_chemical_formula_structural       CrF6K
_chemical_formula_sum              "Cr1 F6 K1"
_cell_length_a       4.61263
_cell_length_b       4.61253
_cell_length_c       4.61244
_cell_angle_alpha    98.4298
_cell_angle_beta     98.429
_cell_angle_gamma    98.4294

_space_group_name_H-M_alt    "P 1"
_space_group_IT_number       1

loop_
  _space_group_symop_operation_xyz
  'x, y, z'

loop_
  _atom_site_type_symbol
  _atom_site_label
  _atom_site_symmetry_multiplicity
  _atom_site_fract_x
  _atom_site_fract_y
  _atom_site_fract_z
  _atom_site_occupancy
  Cr  Cr1       1.0  0.50000  0.50000  0.50000  1.0000
  F   F1        1.0  0.25600  0.58200  0.19900  1.0000
  F   F2        1.0  0.58200  0.19900  0.25600  1.0000
  F   F3        1.0  0.80100  0.74400  0.41800  1.0000
  F   F4        1.0  0.19900  0.25600  0.58200  1.0000
  F   F5        1.0  0.41800  0.80100  0.74400  1.0000
  F   F6        1.0  0.74400  0.41800  0.80100  1.0000
  K   K1        1.0  0.00000  0.00000  0.00000  1.0000
