data_image0
_chemical_formula_structural       Ni6Th14
_chemical_formula_sum              "Ni6 Th14"
_cell_length_a       9.81973
_cell_length_b       9.81965
_cell_length_c       6.19631
_cell_angle_alpha    90
_cell_angle_beta     90
_cell_angle_gamma    120.002

_space_group_name_H-M_alt    "P 1"
_space_group_IT_number       1

loop_
  _space_group_symop_operation_xyz
  'x, y, z'

loop_
  _atom_site_type_symbol
  _atom_site_label
  _atom_site_symmetry_multiplicity
  _atom_site_fract_x
  _atom_site_fract_y
  _atom_site_fract_z
  _atom_site_occupancy
  Ni  Ni1       1.0  0.18700  0.37300  0.80700  1.0000
  Ni  Ni2       1.0  0.62700  0.81300  0.80700  1.0000
  Ni  Ni3       1.0  0.37300  0.18700  0.30700  1.0000
  Ni  Ni4       1.0  0.81300  0.62700  0.30700  1.0000
  Ni  Ni5       1.0  0.18700  0.81300  0.80700  1.0000
  Ni  Ni6       1.0  0.81300  0.18700  0.30700  1.0000
  Th  Th1       1.0  0.33300  0.66700  0.06960  1.0000
  Th  Th2       1.0  0.66700  0.33300  0.57000  1.0000
  Th  Th3       1.0  0.87300  0.74700  0.74200  1.0000
  Th  Th4       1.0  0.25300  0.12700  0.74200  1.0000
  Th  Th5       1.0  0.12700  0.25300  0.24200  1.0000
  Th  Th6       1.0  0.74700  0.87300  0.24200  1.0000
  Th  Th7       1.0  0.87300  0.12700  0.74200  1.0000
  Th  Th8       1.0  0.12700  0.87300  0.24200  1.0000
  Th  Th9       1.0  0.08800  0.54400  0.53800  1.0000
  Th  Th10      1.0  0.91200  0.45600  0.03820  1.0000
  Th  Th11      1.0  0.45600  0.91200  0.53800  1.0000
  Th  Th12      1.0  0.54400  0.08800  0.03820  1.0000
  Th  Th13      1.0  0.45600  0.54400  0.53800  1.0000
  Th  Th14      1.0  0.54400  0.45600  0.03820  1.0000
