data_image0
_chemical_formula_structural       Ni20Zr14
_chemical_formula_sum              "Ni20 Zr14"
_cell_length_a       9.1184
_cell_length_b       7.65207
_cell_length_c       7.65207
_cell_angle_alpha    73.0222
_cell_angle_beta     90
_cell_angle_gamma    90

_space_group_name_H-M_alt    "P 1"
_space_group_IT_number       1

loop_
  _space_group_symop_operation_xyz
  'x, y, z'

loop_
  _atom_site_type_symbol
  _atom_site_label
  _atom_site_symmetry_multiplicity
  _atom_site_fract_x
  _atom_site_fract_y
  _atom_site_fract_z
  _atom_site_occupancy
  Ni  Ni1       1.0  0.60500  0.83900  0.05200  1.0000
  Ni  Ni2       1.0  0.39500  0.05200  0.83900  1.0000
  Ni  Ni3       1.0  0.89500  0.33900  0.55200  1.0000
  Ni  Ni4       1.0  0.10500  0.55200  0.33900  1.0000
  Ni  Ni5       1.0  0.50700  0.50900  0.09250  1.0000
  Ni  Ni6       1.0  0.49300  0.09250  0.50900  1.0000
  Ni  Ni7       1.0  0.99300  0.00865  0.59200  1.0000
  Ni  Ni8       1.0  0.00749  0.59200  0.00865  1.0000
  Ni  Ni9       1.0  0.70700  0.29300  0.31000  1.0000
  Ni  Ni10      1.0  0.29300  0.31000  0.29300  1.0000
  Ni  Ni11      1.0  0.79300  0.79300  0.81000  1.0000
  Ni  Ni12      1.0  0.99300  0.30000  0.88300  1.0000
  Ni  Ni13      1.0  0.00701  0.88300  0.30000  1.0000
  Ni  Ni14      1.0  0.79200  0.08290  0.09990  1.0000
  Ni  Ni15      1.0  0.20800  0.09990  0.08290  1.0000
  Ni  Ni16      1.0  0.70800  0.58300  0.60000  1.0000
  Ni  Ni17      1.0  0.29200  0.60000  0.58300  1.0000
  Ni  Ni18      1.0  0.20700  0.81000  0.79300  1.0000
  Ni  Ni19      1.0  0.50700  0.80000  0.38300  1.0000
  Ni  Ni20      1.0  0.49300  0.38300  0.80000  1.0000
  Zr  Zr1       1.0  0.50000  0.44600  0.44600  1.0000
  Zr  Zr2       1.0  0.00000  0.94600  0.94600  1.0000
  Zr  Zr3       1.0  0.50000  0.13700  0.13700  1.0000
  Zr  Zr4       1.0  0.75000  0.94400  0.44800  1.0000
  Zr  Zr5       1.0  0.25000  0.44800  0.94400  1.0000
  Zr  Zr6       1.0  0.75000  0.44400  0.94800  1.0000
  Zr  Zr7       1.0  0.25000  0.94800  0.44400  1.0000
  Zr  Zr8       1.0  0.81200  0.63400  0.25900  1.0000
  Zr  Zr9       1.0  0.18800  0.25900  0.63400  1.0000
  Zr  Zr10      1.0  0.68800  0.13400  0.75900  1.0000
  Zr  Zr11      1.0  0.31200  0.75900  0.13400  1.0000
  Zr  Zr12      1.0  0.00000  0.63700  0.63700  1.0000
  Zr  Zr13      1.0  0.50000  0.75500  0.75500  1.0000
  Zr  Zr14      1.0  0.00000  0.25500  0.25500  1.0000
