data_image0
_chemical_formula_structural       Bi2CO5
_chemical_formula_sum              "Bi2 C1 O5"
_cell_length_a       4.49161
_cell_length_b       3.54768
_cell_length_c       7.33425
_cell_angle_alpha    103.996
_cell_angle_beta     107.831
_cell_angle_gamma    90

_space_group_name_H-M_alt    "P 1"
_space_group_IT_number       1

loop_
  _space_group_symop_operation_xyz
  'x, y, z'

loop_
  _atom_site_type_symbol
  _atom_site_label
  _atom_site_symmetry_multiplicity
  _atom_site_fract_x
  _atom_site_fract_y
  _atom_site_fract_z
  _atom_site_occupancy
  Bi  Bi1       1.0  0.30700  0.30700  0.61500  1.0000
  Bi  Bi2       1.0  0.98800  0.98800  0.97600  1.0000
  C   C1        1.0  0.65500  0.65500  0.31000  1.0000
  O   O1        1.0  0.56000  0.56000  0.12000  1.0000
  O   O2        1.0  0.45700  0.70300  0.40600  1.0000
  O   O3        1.0  0.94900  0.70300  0.40600  1.0000
  O   O4        1.0  0.88800  0.38800  0.77700  1.0000
  O   O5        1.0  0.41400  0.91400  0.82800  1.0000
