data_image0
_chemical_formula_structural       Hf5Te4
_chemical_formula_sum              "Hf5 Te4"
_cell_length_a       3.78805
_cell_length_b       7.81954
_cell_length_c       7.81954
_cell_angle_alpha    93.3634
_cell_angle_beta     104.017
_cell_angle_gamma    75.9826

_space_group_name_H-M_alt    "P 1"
_space_group_IT_number       1

loop_
  _space_group_symop_operation_xyz
  'x, y, z'

loop_
  _atom_site_type_symbol
  _atom_site_label
  _atom_site_symmetry_multiplicity
  _atom_site_fract_x
  _atom_site_fract_y
  _atom_site_fract_z
  _atom_site_occupancy
  Hf  Hf1       1.0  0.00000  0.00000  0.00000  1.0000
  Hf  Hf2       1.0  0.68900  0.68000  0.05810  1.0000
  Hf  Hf3       1.0  0.63100  0.05810  0.32000  1.0000
  Hf  Hf4       1.0  0.36900  0.94200  0.68000  1.0000
  Hf  Hf5       1.0  0.31100  0.32000  0.94200  1.0000
  Te  Te1       1.0  0.94800  0.33800  0.23400  1.0000
  Te  Te2       1.0  0.28600  0.76600  0.33800  1.0000
  Te  Te3       1.0  0.71400  0.23400  0.66200  1.0000
  Te  Te4       1.0  0.05210  0.66200  0.76600  1.0000
