data_image0
_chemical_formula_structural       FNa3O4S
_chemical_formula_sum              "F1 Na3 O4 S1"
_cell_length_a       4.80199
_cell_length_b       4.80199
_cell_length_c       4.80199
_cell_angle_alpha    90.3765
_cell_angle_beta     90.3766
_cell_angle_gamma    90.3766

_space_group_name_H-M_alt    "P 1"
_space_group_IT_number       1

loop_
  _space_group_symop_operation_xyz
  'x, y, z'

loop_
  _atom_site_type_symbol
  _atom_site_label
  _atom_site_symmetry_multiplicity
  _atom_site_fract_x
  _atom_site_fract_y
  _atom_site_fract_z
  _atom_site_occupancy
  F   F1        1.0  0.16100  0.16100  0.16100  1.0000
  Na  Na1       1.0  0.16500  0.66700  0.16500  1.0000
  Na  Na2       1.0  0.66700  0.16500  0.16500  1.0000
  Na  Na3       1.0  0.16500  0.16500  0.66700  1.0000
  O   O1        1.0  0.48500  0.48500  0.48500  1.0000
  O   O2        1.0  0.84200  0.84200  0.48600  1.0000
  O   O3        1.0  0.48600  0.84200  0.84200  1.0000
  O   O4        1.0  0.84200  0.48600  0.84200  1.0000
  S   S1        1.0  0.66400  0.66400  0.66400  1.0000
