data_image0
_chemical_formula_structural       Ce8Rh4Si12
_chemical_formula_sum              "Ce8 Rh4 Si12"
_cell_length_a       8.3067
_cell_length_b       8.30684
_cell_length_c       8.63026
_cell_angle_alpha    90.0005
_cell_angle_beta     89.9995
_cell_angle_gamma    120.003

_space_group_name_H-M_alt    "P 1"
_space_group_IT_number       1

loop_
  _space_group_symop_operation_xyz
  'x, y, z'

loop_
  _atom_site_type_symbol
  _atom_site_label
  _atom_site_symmetry_multiplicity
  _atom_site_fract_x
  _atom_site_fract_y
  _atom_site_fract_z
  _atom_site_occupancy
  Ce  Ce1       1.0  0.00000  0.00000  0.75000  1.0000
  Ce  Ce2       1.0  0.00000  0.00000  0.25000  1.0000
  Ce  Ce3       1.0  0.00077  0.50000  0.75000  1.0000
  Ce  Ce4       1.0  0.50000  0.50000  0.75000  1.0000
  Ce  Ce5       1.0  0.50000  0.00077  0.25000  1.0000
  Ce  Ce6       1.0  0.50000  0.99900  0.75000  1.0000
  Ce  Ce7       1.0  0.50000  0.50000  0.25000  1.0000
  Ce  Ce8       1.0  0.99900  0.50000  0.25000  1.0000
  Rh  Rh1       1.0  0.33300  0.66700  0.49800  1.0000
  Rh  Rh2       1.0  0.66700  0.33300  0.50200  1.0000
  Rh  Rh3       1.0  0.66700  0.33300  0.99900  1.0000
  Rh  Rh4       1.0  0.33300  0.66700  0.00150  1.0000
  Si  Si1       1.0  0.66700  0.83300  0.50000  1.0000
  Si  Si2       1.0  0.16700  0.83300  0.50000  1.0000
  Si  Si3       1.0  0.16700  0.33300  0.50000  1.0000
  Si  Si4       1.0  0.83300  0.66700  0.50000  1.0000
  Si  Si5       1.0  0.83300  0.16700  0.50000  1.0000
  Si  Si6       1.0  0.33300  0.16700  0.50000  1.0000
  Si  Si7       1.0  0.33300  0.16700  0.00002  1.0000
  Si  Si8       1.0  0.83300  0.16700  0.00002  1.0000
  Si  Si9       1.0  0.83300  0.66700  0.00002  1.0000
  Si  Si10      1.0  0.16700  0.83300  1.00000  1.0000
  Si  Si11      1.0  0.66700  0.83300  1.00000  1.0000
  Si  Si12      1.0  0.16700  0.33300  1.00000  1.0000
