data_image0
_chemical_formula_structural       Ce4In4Ni20
_chemical_formula_sum              "Ce4 In4 Ni20"
_cell_length_a       4.87699
_cell_length_b       4.87698
_cell_length_c       19.7049
_cell_angle_alpha    90.0002
_cell_angle_beta     89.9998
_cell_angle_gamma    120.006

_space_group_name_H-M_alt    "P 1"
_space_group_IT_number       1

loop_
  _space_group_symop_operation_xyz
  'x, y, z'

loop_
  _atom_site_type_symbol
  _atom_site_label
  _atom_site_symmetry_multiplicity
  _atom_site_fract_x
  _atom_site_fract_y
  _atom_site_fract_z
  _atom_site_occupancy
  Ce  Ce1       1.0  0.66700  0.33300  0.75000  1.0000
  Ce  Ce2       1.0  0.33300  0.66700  0.25000  1.0000
  Ce  Ce3       1.0  0.00000  0.00000  0.50000  1.0000
  Ce  Ce4       1.0  0.00000  0.00000  0.00000  1.0000
  In  In1       1.0  0.33300  0.66700  0.41500  1.0000
  In  In2       1.0  0.66700  0.33300  0.91500  1.0000
  In  In3       1.0  0.66700  0.33300  0.58500  1.0000
  In  In4       1.0  0.33300  0.66700  0.08540  1.0000
  Ni  Ni1       1.0  0.00000  0.00001  0.75000  1.0000
  Ni  Ni2       1.0  0.00001  0.00000  0.25000  1.0000
  Ni  Ni3       1.0  0.83400  0.66800  0.35300  1.0000
  Ni  Ni4       1.0  0.83400  0.16600  0.35300  1.0000
  Ni  Ni5       1.0  0.33200  0.16600  0.35300  1.0000
  Ni  Ni6       1.0  0.66800  0.83400  0.85300  1.0000
  Ni  Ni7       1.0  0.16600  0.83400  0.85300  1.0000
  Ni  Ni8       1.0  0.16600  0.33200  0.85300  1.0000
  Ni  Ni9       1.0  0.66800  0.83400  0.64700  1.0000
  Ni  Ni10      1.0  0.16600  0.83400  0.64700  1.0000
  Ni  Ni11      1.0  0.83400  0.16600  0.14700  1.0000
  Ni  Ni12      1.0  0.33200  0.16600  0.14700  1.0000
  Ni  Ni13      1.0  0.16600  0.33200  0.64700  1.0000
  Ni  Ni14      1.0  0.83400  0.66800  0.14700  1.0000
  Ni  Ni15      1.0  0.33300  0.66700  0.95300  1.0000
  Ni  Ni16      1.0  0.66700  0.33300  0.45300  1.0000
  Ni  Ni17      1.0  0.66700  0.33300  0.04650  1.0000
  Ni  Ni18      1.0  0.33300  0.66700  0.54700  1.0000
  Ni  Ni19      1.0  0.66700  0.33300  0.25000  1.0000
  Ni  Ni20      1.0  0.33300  0.66700  0.75000  1.0000
