data_image0
_chemical_formula_structural       Li85Pb20
_chemical_formula_sum              "Li85 Pb20"
_cell_length_a       13.5305
_cell_length_b       13.5305
_cell_length_c       13.5305
_cell_angle_alpha    60
_cell_angle_beta     60
_cell_angle_gamma    60

_space_group_name_H-M_alt    "P 1"
_space_group_IT_number       1

loop_
  _space_group_symop_operation_xyz
  'x, y, z'

loop_
  _atom_site_type_symbol
  _atom_site_label
  _atom_site_symmetry_multiplicity
  _atom_site_fract_x
  _atom_site_fract_y
  _atom_site_fract_z
  _atom_site_occupancy
  Li  Li1       1.0  0.82400  0.52800  0.82400  1.0000
  Li  Li2       1.0  0.52800  0.82400  0.82400  1.0000
  Li  Li3       1.0  0.82400  0.82400  0.52800  1.0000
  Li  Li4       1.0  0.82400  0.82400  0.82400  1.0000
  Li  Li5       1.0  0.80900  0.51100  0.16900  1.0000
  Li  Li6       1.0  0.51100  0.80900  0.16900  1.0000
  Li  Li7       1.0  0.16900  0.51100  0.80900  1.0000
  Li  Li8       1.0  0.80900  0.51100  0.51100  1.0000
  Li  Li9       1.0  0.51100  0.80900  0.51100  1.0000
  Li  Li10      1.0  0.51100  0.16900  0.80900  1.0000
  Li  Li11      1.0  0.51100  0.16900  0.51100  1.0000
  Li  Li12      1.0  0.16900  0.51100  0.51100  1.0000
  Li  Li13      1.0  0.16900  0.80900  0.51100  1.0000
  Li  Li14      1.0  0.29400  0.01810  0.67000  1.0000
  Li  Li15      1.0  0.01810  0.29400  0.67000  1.0000
  Li  Li16      1.0  0.67000  0.01810  0.29400  1.0000
  Li  Li17      1.0  0.29400  0.01810  0.01810  1.0000
  Li  Li18      1.0  0.01810  0.29400  0.01810  1.0000
  Li  Li19      1.0  0.01810  0.67000  0.29400  1.0000
  Li  Li20      1.0  0.01810  0.67000  0.01810  1.0000
  Li  Li21      1.0  0.67000  0.01810  0.01810  1.0000
  Li  Li22      1.0  0.67000  0.29400  0.01810  1.0000
  Li  Li23      1.0  0.29400  0.67000  0.01810  1.0000
  Li  Li24      1.0  0.01810  0.01810  0.29400  1.0000
  Li  Li25      1.0  0.01810  0.01810  0.67000  1.0000
  Li  Li26      1.0  0.30500  0.08370  0.30500  1.0000
  Li  Li27      1.0  0.08370  0.30500  0.30500  1.0000
  Li  Li28      1.0  0.30500  0.30500  0.08370  1.0000
  Li  Li29      1.0  0.30500  0.30500  0.30500  1.0000
  Li  Li30      1.0  0.16600  0.50100  0.16600  1.0000
  Li  Li31      1.0  0.50100  0.16600  0.16600  1.0000
  Li  Li32      1.0  0.16600  0.16600  0.50100  1.0000
  Li  Li33      1.0  0.16600  0.16600  0.16600  1.0000
  Li  Li34      1.0  0.75000  0.75000  0.75000  1.0000
  Li  Li35      1.0  0.92300  0.92300  0.57700  1.0000
  Li  Li36      1.0  0.92300  0.57700  0.92300  1.0000
  Li  Li37      1.0  0.57700  0.57700  0.92300  1.0000
  Li  Li38      1.0  0.57700  0.92300  0.57700  1.0000
  Li  Li39      1.0  0.57700  0.92300  0.92300  1.0000
  Li  Li40      1.0  0.92300  0.57700  0.57700  1.0000
  Li  Li41      1.0  0.17300  0.17300  0.82700  1.0000
  Li  Li42      1.0  0.17300  0.82700  0.17300  1.0000
  Li  Li43      1.0  0.82700  0.82700  0.17300  1.0000
  Li  Li44      1.0  0.82700  0.17300  0.82700  1.0000
  Li  Li45      1.0  0.82700  0.17300  0.17300  1.0000
  Li  Li46      1.0  0.17300  0.82700  0.82700  1.0000
  Li  Li47      1.0  0.57700  0.26800  0.57700  1.0000
  Li  Li48      1.0  0.26800  0.57700  0.57700  1.0000
  Li  Li49      1.0  0.57700  0.57700  0.26800  1.0000
  Li  Li50      1.0  0.57700  0.57700  0.57700  1.0000
  Li  Li51      1.0  0.43300  0.70200  0.43300  1.0000
  Li  Li52      1.0  0.70200  0.43300  0.43300  1.0000
  Li  Li53      1.0  0.75900  0.06780  0.41500  1.0000
  Li  Li54      1.0  0.41500  0.75900  0.06780  1.0000
  Li  Li55      1.0  0.06780  0.75900  0.75900  1.0000
  Li  Li56      1.0  0.75900  0.06780  0.75900  1.0000
  Li  Li57      1.0  0.75900  0.41500  0.06780  1.0000
  Li  Li58      1.0  0.75900  0.41500  0.75900  1.0000
  Li  Li59      1.0  0.41500  0.75900  0.75900  1.0000
  Li  Li60      1.0  0.41500  0.06780  0.75900  1.0000
  Li  Li61      1.0  0.06780  0.41500  0.75900  1.0000
  Li  Li62      1.0  0.75900  0.75900  0.06780  1.0000
  Li  Li63      1.0  0.75900  0.75900  0.41500  1.0000
  Li  Li64      1.0  0.53900  0.26900  0.92400  1.0000
  Li  Li65      1.0  0.26900  0.53900  0.92400  1.0000
  Li  Li66      1.0  0.92400  0.26900  0.53900  1.0000
  Li  Li67      1.0  0.53900  0.26900  0.26900  1.0000
  Li  Li68      1.0  0.26900  0.53900  0.26900  1.0000
  Li  Li69      1.0  0.26900  0.92400  0.53900  1.0000
  Li  Li70      1.0  0.26900  0.92400  0.26900  1.0000
  Li  Li71      1.0  0.92400  0.26900  0.26900  1.0000
  Li  Li72      1.0  0.92400  0.53900  0.26900  1.0000
  Li  Li73      1.0  0.53900  0.92400  0.26900  1.0000
  Li  Li74      1.0  0.26900  0.26900  0.53900  1.0000
  Li  Li75      1.0  0.26900  0.26900  0.92400  1.0000
  Li  Li76      1.0  0.43300  0.43300  0.70200  1.0000
  Li  Li77      1.0  0.43300  0.43300  0.43300  1.0000
  Li  Li78      1.0  0.06780  0.75900  0.41500  1.0000
  Li  Li79      1.0  0.05400  0.83800  0.05400  1.0000
  Li  Li80      1.0  0.83800  0.05400  0.05400  1.0000
  Li  Li81      1.0  0.05400  0.05400  0.83800  1.0000
  Li  Li82      1.0  0.05400  0.05400  0.05400  1.0000
  Li  Li83      1.0  0.80900  0.16900  0.51100  1.0000
  Li  Li84      1.0  0.51100  0.51100  0.80900  1.0000
  Li  Li85      1.0  0.51100  0.51100  0.16900  1.0000
  Pb  Pb1       1.0  0.66600  0.00119  0.66600  1.0000
  Pb  Pb2       1.0  0.00119  0.66600  0.66600  1.0000
  Pb  Pb3       1.0  0.66600  0.66600  0.00119  1.0000
  Pb  Pb4       1.0  0.66600  0.66600  0.66600  1.0000
  Pb  Pb5       1.0  0.31900  0.31900  0.68100  1.0000
  Pb  Pb6       1.0  0.31900  0.68100  0.31900  1.0000
  Pb  Pb7       1.0  0.68100  0.68100  0.31900  1.0000
  Pb  Pb8       1.0  0.68100  0.31900  0.68100  1.0000
  Pb  Pb9       1.0  0.68100  0.31900  0.31900  1.0000
  Pb  Pb10      1.0  0.31900  0.68100  0.68100  1.0000
  Pb  Pb11      1.0  0.07040  0.07040  0.43000  1.0000
  Pb  Pb12      1.0  0.07040  0.43000  0.07040  1.0000
  Pb  Pb13      1.0  0.43000  0.43000  0.07040  1.0000
  Pb  Pb14      1.0  0.43000  0.07040  0.43000  1.0000
  Pb  Pb15      1.0  0.43000  0.07040  0.07040  1.0000
  Pb  Pb16      1.0  0.07040  0.43000  0.43000  1.0000
  Pb  Pb17      1.0  0.90900  0.27400  0.90900  1.0000
  Pb  Pb18      1.0  0.27400  0.90900  0.90900  1.0000
  Pb  Pb19      1.0  0.90900  0.90900  0.27400  1.0000
  Pb  Pb20      1.0  0.90900  0.90900  0.90900  1.0000
