data_image0
_chemical_formula_structural       Bi12Dy20
_chemical_formula_sum              "Bi12 Dy20"
_cell_length_a       8.14791
_cell_length_b       9.437
_cell_length_c       11.8652
_cell_angle_alpha    90
_cell_angle_beta     90
_cell_angle_gamma    90

_space_group_name_H-M_alt    "P 1"
_space_group_IT_number       1

loop_
  _space_group_symop_operation_xyz
  'x, y, z'

loop_
  _atom_site_type_symbol
  _atom_site_label
  _atom_site_symmetry_multiplicity
  _atom_site_fract_x
  _atom_site_fract_y
  _atom_site_fract_z
  _atom_site_occupancy
  Bi  Bi1       1.0  0.06520  0.50500  0.17600  1.0000
  Bi  Bi2       1.0  0.43500  0.49500  0.67600  1.0000
  Bi  Bi3       1.0  0.56500  0.99500  0.32400  1.0000
  Bi  Bi4       1.0  0.93500  0.00525  0.82400  1.0000
  Bi  Bi5       1.0  0.93500  0.49500  0.82400  1.0000
  Bi  Bi6       1.0  0.56500  0.50500  0.32400  1.0000
  Bi  Bi7       1.0  0.43500  0.00525  0.67600  1.0000
  Bi  Bi8       1.0  0.06520  0.99500  0.17600  1.0000
  Bi  Bi9       1.0  0.91000  0.75000  0.54400  1.0000
  Bi  Bi10      1.0  0.59000  0.25000  0.04420  1.0000
  Bi  Bi11      1.0  0.41000  0.75000  0.95600  1.0000
  Bi  Bi12      1.0  0.09030  0.25000  0.45600  1.0000
  Dy  Dy1       1.0  0.19500  0.93800  0.44300  1.0000
  Dy  Dy2       1.0  0.30500  0.06190  0.94300  1.0000
  Dy  Dy3       1.0  0.69500  0.56200  0.05680  1.0000
  Dy  Dy4       1.0  0.80500  0.43800  0.55700  1.0000
  Dy  Dy5       1.0  0.80500  0.06190  0.55700  1.0000
  Dy  Dy6       1.0  0.69500  0.93800  0.05680  1.0000
  Dy  Dy7       1.0  0.30500  0.43800  0.94300  1.0000
  Dy  Dy8       1.0  0.19500  0.56200  0.44300  1.0000
  Dy  Dy9       1.0  0.68700  0.75000  0.77900  1.0000
  Dy  Dy10      1.0  0.81300  0.25000  0.27900  1.0000
  Dy  Dy11      1.0  0.18700  0.75000  0.72100  1.0000
  Dy  Dy12      1.0  0.31300  0.25000  0.22100  1.0000
  Dy  Dy13      1.0  0.52400  0.75000  0.51100  1.0000
  Dy  Dy14      1.0  0.97600  0.25000  0.01130  1.0000
  Dy  Dy15      1.0  0.02410  0.75000  0.98900  1.0000
  Dy  Dy16      1.0  0.47600  0.25000  0.48900  1.0000
  Dy  Dy17      1.0  0.85100  0.75000  0.28600  1.0000
  Dy  Dy18      1.0  0.64900  0.25000  0.78600  1.0000
  Dy  Dy19      1.0  0.35100  0.75000  0.21400  1.0000
  Dy  Dy20      1.0  0.14900  0.25000  0.71400  1.0000
