data_image0
_chemical_formula_structural       Bi12Ho20
_chemical_formula_sum              "Bi12 Ho20"
_cell_length_a       8.11851
_cell_length_b       9.39402
_cell_length_c       11.805
_cell_angle_alpha    90
_cell_angle_beta     90
_cell_angle_gamma    90

_space_group_name_H-M_alt    "P 1"
_space_group_IT_number       1

loop_
  _space_group_symop_operation_xyz
  'x, y, z'

loop_
  _atom_site_type_symbol
  _atom_site_label
  _atom_site_symmetry_multiplicity
  _atom_site_fract_x
  _atom_site_fract_y
  _atom_site_fract_z
  _atom_site_occupancy
  Bi  Bi1       1.0  0.06460  0.50500  0.17600  1.0000
  Bi  Bi2       1.0  0.43500  0.49500  0.67600  1.0000
  Bi  Bi3       1.0  0.56500  0.99500  0.32400  1.0000
  Bi  Bi4       1.0  0.93500  0.00542  0.82400  1.0000
  Bi  Bi5       1.0  0.93500  0.49500  0.82400  1.0000
  Bi  Bi6       1.0  0.56500  0.50500  0.32400  1.0000
  Bi  Bi7       1.0  0.43500  0.00542  0.67600  1.0000
  Bi  Bi8       1.0  0.06460  0.99500  0.17600  1.0000
  Bi  Bi9       1.0  0.90800  0.75000  0.54400  1.0000
  Bi  Bi10      1.0  0.59200  0.25000  0.04420  1.0000
  Bi  Bi11      1.0  0.40800  0.75000  0.95600  1.0000
  Bi  Bi12      1.0  0.09220  0.25000  0.45600  1.0000
  Ho  Ho1       1.0  0.52300  0.75000  0.51100  1.0000
  Ho  Ho2       1.0  0.97700  0.25000  0.01140  1.0000
  Ho  Ho3       1.0  0.02300  0.75000  0.98900  1.0000
  Ho  Ho4       1.0  0.47700  0.25000  0.48900  1.0000
  Ho  Ho5       1.0  0.19400  0.93700  0.44300  1.0000
  Ho  Ho6       1.0  0.30600  0.06300  0.94300  1.0000
  Ho  Ho7       1.0  0.69400  0.56300  0.05730  1.0000
  Ho  Ho8       1.0  0.80600  0.43700  0.55700  1.0000
  Ho  Ho9       1.0  0.80600  0.06300  0.55700  1.0000
  Ho  Ho10      1.0  0.69400  0.93700  0.05730  1.0000
  Ho  Ho11      1.0  0.30600  0.43700  0.94300  1.0000
  Ho  Ho12      1.0  0.19400  0.56300  0.44300  1.0000
  Ho  Ho13      1.0  0.31300  0.25000  0.22000  1.0000
  Ho  Ho14      1.0  0.85000  0.75000  0.28600  1.0000
  Ho  Ho15      1.0  0.65000  0.25000  0.78600  1.0000
  Ho  Ho16      1.0  0.35000  0.75000  0.21400  1.0000
  Ho  Ho17      1.0  0.15000  0.25000  0.71400  1.0000
  Ho  Ho18      1.0  0.68700  0.75000  0.78000  1.0000
  Ho  Ho19      1.0  0.81300  0.25000  0.28000  1.0000
  Ho  Ho20      1.0  0.18700  0.75000  0.72000  1.0000
