data_image0
_chemical_formula_structural       Cu20In4Th4
_chemical_formula_sum              "Cu20 In4 Th4"
_cell_length_a       8.2282
_cell_length_b       5.00568
_cell_length_c       10.4617
_cell_angle_alpha    90
_cell_angle_beta     90
_cell_angle_gamma    90

_space_group_name_H-M_alt    "P 1"
_space_group_IT_number       1

loop_
  _space_group_symop_operation_xyz
  'x, y, z'

loop_
  _atom_site_type_symbol
  _atom_site_label
  _atom_site_symmetry_multiplicity
  _atom_site_fract_x
  _atom_site_fract_y
  _atom_site_fract_z
  _atom_site_occupancy
  Cu  Cu1       1.0  0.06770  0.99900  0.31200  1.0000
  Cu  Cu2       1.0  0.43200  0.00119  0.81200  1.0000
  Cu  Cu3       1.0  0.56800  0.50100  0.18800  1.0000
  Cu  Cu4       1.0  0.93200  0.49900  0.68800  1.0000
  Cu  Cu5       1.0  0.93200  0.00119  0.68800  1.0000
  Cu  Cu6       1.0  0.56800  0.99900  0.18800  1.0000
  Cu  Cu7       1.0  0.43200  0.49900  0.81200  1.0000
  Cu  Cu8       1.0  0.06770  0.50100  0.31200  1.0000
  Cu  Cu9       1.0  0.94100  0.75000  0.89600  1.0000
  Cu  Cu10      1.0  0.55900  0.25000  0.39600  1.0000
  Cu  Cu11      1.0  0.44100  0.75000  0.60400  1.0000
  Cu  Cu12      1.0  0.05910  0.25000  0.10400  1.0000
  Cu  Cu13      1.0  0.68300  0.75000  0.75400  1.0000
  Cu  Cu14      1.0  0.81700  0.25000  0.25400  1.0000
  Cu  Cu15      1.0  0.08510  0.75000  0.51700  1.0000
  Cu  Cu16      1.0  0.41500  0.25000  0.01690  1.0000
  Cu  Cu17      1.0  0.18300  0.75000  0.74600  1.0000
  Cu  Cu18      1.0  0.31700  0.25000  0.24600  1.0000
  Cu  Cu19      1.0  0.58500  0.75000  0.98300  1.0000
  Cu  Cu20      1.0  0.91500  0.25000  0.48300  1.0000
  In  In1       1.0  0.86100  0.75000  0.14000  1.0000
  In  In2       1.0  0.63900  0.25000  0.64000  1.0000
  In  In3       1.0  0.36100  0.75000  0.36000  1.0000
  In  In4       1.0  0.13900  0.25000  0.86000  1.0000
  Th  Th1       1.0  0.24700  0.75000  0.05970  1.0000
  Th  Th2       1.0  0.75300  0.25000  0.94000  1.0000
  Th  Th3       1.0  0.25300  0.25000  0.56000  1.0000
  Th  Th4       1.0  0.74700  0.75000  0.44000  1.0000
