data_image0
_chemical_formula_structural       Ca12Ga8Pt8
_chemical_formula_sum              "Ca12 Ga8 Pt8"
_cell_length_a       5.77493
_cell_length_b       7.88315
_cell_length_c       13.8827
_cell_angle_alpha    90
_cell_angle_beta     90
_cell_angle_gamma    90

_space_group_name_H-M_alt    "P 1"
_space_group_IT_number       1

loop_
  _space_group_symop_operation_xyz
  'x, y, z'

loop_
  _atom_site_type_symbol
  _atom_site_label
  _atom_site_symmetry_multiplicity
  _atom_site_fract_x
  _atom_site_fract_y
  _atom_site_fract_z
  _atom_site_occupancy
  Ca  Ca1       1.0  0.85600  0.39500  0.90200  1.0000
  Ca  Ca2       1.0  0.85600  0.10500  0.40200  1.0000
  Ca  Ca3       1.0  0.14400  0.89500  0.90200  1.0000
  Ca  Ca4       1.0  0.85600  0.39500  0.59800  1.0000
  Ca  Ca5       1.0  0.14400  0.60500  0.09820  1.0000
  Ca  Ca6       1.0  0.63000  0.75400  0.25000  1.0000
  Ca  Ca7       1.0  0.37000  0.24600  0.75000  1.0000
  Ca  Ca8       1.0  0.63000  0.74600  0.75000  1.0000
  Ca  Ca9       1.0  0.37000  0.25400  0.25000  1.0000
  Ca  Ca10      1.0  0.14400  0.89500  0.59800  1.0000
  Ca  Ca11      1.0  0.85600  0.10500  0.09820  1.0000
  Ca  Ca12      1.0  0.14400  0.60500  0.40200  1.0000
  Ga  Ga1       1.0  0.37300  0.25000  0.50000  1.0000
  Ga  Ga2       1.0  0.62700  0.75000  0.00000  1.0000
  Ga  Ga3       1.0  0.62700  0.75000  0.50000  1.0000
  Ga  Ga4       1.0  0.37300  0.25000  0.00000  1.0000
  Ga  Ga5       1.0  0.14200  0.90400  0.25000  1.0000
  Ga  Ga6       1.0  0.85800  0.09560  0.75000  1.0000
  Ga  Ga7       1.0  0.14200  0.59600  0.75000  1.0000
  Ga  Ga8       1.0  0.85800  0.40400  0.25000  1.0000
  Pt  Pt1       1.0  0.63800  0.03350  0.59400  1.0000
  Pt  Pt2       1.0  0.36200  0.96600  0.09440  1.0000
  Pt  Pt3       1.0  0.63800  0.46600  0.40600  1.0000
  Pt  Pt4       1.0  0.36200  0.53400  0.90600  1.0000
  Pt  Pt5       1.0  0.36200  0.96600  0.40600  1.0000
  Pt  Pt6       1.0  0.63800  0.03350  0.90600  1.0000
  Pt  Pt7       1.0  0.36200  0.53400  0.59400  1.0000
  Pt  Pt8       1.0  0.63800  0.46600  0.09440  1.0000
