data_image0
_chemical_formula_structural       Ca12Ga12Ir8
_chemical_formula_sum              "Ca12 Ga12 Ir8"
_cell_length_a       8.0923
_cell_length_b       14.9431
_cell_length_c       5.76697
_cell_angle_alpha    90
_cell_angle_beta     90
_cell_angle_gamma    90

_space_group_name_H-M_alt    "P 1"
_space_group_IT_number       1

loop_
  _space_group_symop_operation_xyz
  'x, y, z'

loop_
  _atom_site_type_symbol
  _atom_site_label
  _atom_site_symmetry_multiplicity
  _atom_site_fract_x
  _atom_site_fract_y
  _atom_site_fract_z
  _atom_site_occupancy
  Ca  Ca1       1.0  0.54700  0.89200  0.11000  1.0000
  Ca  Ca2       1.0  0.54700  0.60800  0.11000  1.0000
  Ca  Ca3       1.0  0.95300  0.39200  0.61000  1.0000
  Ca  Ca4       1.0  0.04700  0.89200  0.39000  1.0000
  Ca  Ca5       1.0  0.45300  0.10800  0.89000  1.0000
  Ca  Ca6       1.0  0.69800  0.75000  0.62100  1.0000
  Ca  Ca7       1.0  0.80200  0.25000  0.12100  1.0000
  Ca  Ca8       1.0  0.19800  0.75000  0.87900  1.0000
  Ca  Ca9       1.0  0.30200  0.25000  0.37900  1.0000
  Ca  Ca10      1.0  0.45300  0.39200  0.89000  1.0000
  Ca  Ca11      1.0  0.04700  0.60800  0.39000  1.0000
  Ca  Ca12      1.0  0.95300  0.10800  0.61000  1.0000
  Ga  Ga1       1.0  0.85500  0.75000  0.08340  1.0000
  Ga  Ga2       1.0  0.64500  0.25000  0.58300  1.0000
  Ga  Ga3       1.0  0.35500  0.75000  0.41700  1.0000
  Ga  Ga4       1.0  0.14500  0.25000  0.91700  1.0000
  Ga  Ga5       1.0  0.32000  0.46100  0.37800  1.0000
  Ga  Ga6       1.0  0.18000  0.53900  0.87800  1.0000
  Ga  Ga7       1.0  0.82000  0.03940  0.12200  1.0000
  Ga  Ga8       1.0  0.68000  0.96100  0.62200  1.0000
  Ga  Ga9       1.0  0.68000  0.53900  0.62200  1.0000
  Ga  Ga10      1.0  0.82000  0.46100  0.12200  1.0000
  Ga  Ga11      1.0  0.18000  0.96100  0.87800  1.0000
  Ga  Ga12      1.0  0.32000  0.03940  0.37800  1.0000
  Ir  Ir1       1.0  0.60900  0.09980  0.39400  1.0000
  Ir  Ir2       1.0  0.89100  0.90000  0.89400  1.0000
  Ir  Ir3       1.0  0.89100  0.60000  0.89400  1.0000
  Ir  Ir4       1.0  0.60900  0.40000  0.39400  1.0000
  Ir  Ir5       1.0  0.39100  0.90000  0.60600  1.0000
  Ir  Ir6       1.0  0.10900  0.09980  0.10600  1.0000
  Ir  Ir7       1.0  0.10900  0.40000  0.10600  1.0000
  Ir  Ir8       1.0  0.39100  0.60000  0.60600  1.0000
