data_image0
_chemical_formula_structural       Ca12Ga12Rh8
_chemical_formula_sum              "Ca12 Ga12 Rh8"
_cell_length_a       8.05124
_cell_length_b       14.969
_cell_length_c       5.78446
_cell_angle_alpha    90
_cell_angle_beta     90
_cell_angle_gamma    90

_space_group_name_H-M_alt    "P 1"
_space_group_IT_number       1

loop_
  _space_group_symop_operation_xyz
  'x, y, z'

loop_
  _atom_site_type_symbol
  _atom_site_label
  _atom_site_symmetry_multiplicity
  _atom_site_fract_x
  _atom_site_fract_y
  _atom_site_fract_z
  _atom_site_occupancy
  Ca  Ca1       1.0  0.45500  0.39100  0.88800  1.0000
  Ca  Ca2       1.0  0.04540  0.60900  0.38800  1.0000
  Ca  Ca3       1.0  0.95500  0.10900  0.61200  1.0000
  Ca  Ca4       1.0  0.54500  0.89100  0.11200  1.0000
  Ca  Ca5       1.0  0.54500  0.60900  0.11200  1.0000
  Ca  Ca6       1.0  0.95500  0.39100  0.61200  1.0000
  Ca  Ca7       1.0  0.04540  0.89100  0.38800  1.0000
  Ca  Ca8       1.0  0.45500  0.10900  0.88800  1.0000
  Ca  Ca9       1.0  0.69500  0.75000  0.62000  1.0000
  Ca  Ca10      1.0  0.80500  0.25000  0.12000  1.0000
  Ca  Ca11      1.0  0.19500  0.75000  0.88000  1.0000
  Ca  Ca12      1.0  0.30500  0.25000  0.38000  1.0000
  Ga  Ga1       1.0  0.85100  0.75000  0.08970  1.0000
  Ga  Ga2       1.0  0.64900  0.25000  0.59000  1.0000
  Ga  Ga3       1.0  0.35100  0.75000  0.41000  1.0000
  Ga  Ga4       1.0  0.14900  0.25000  0.91000  1.0000
  Ga  Ga5       1.0  0.32000  0.46000  0.38200  1.0000
  Ga  Ga6       1.0  0.18000  0.54000  0.88200  1.0000
  Ga  Ga7       1.0  0.82000  0.03980  0.11800  1.0000
  Ga  Ga8       1.0  0.18000  0.96000  0.88200  1.0000
  Ga  Ga9       1.0  0.32000  0.03980  0.38200  1.0000
  Ga  Ga10      1.0  0.68000  0.96000  0.61800  1.0000
  Ga  Ga11      1.0  0.68000  0.54000  0.61800  1.0000
  Ga  Ga12      1.0  0.82000  0.46000  0.11800  1.0000
  Rh  Rh1       1.0  0.11000  0.40100  0.10600  1.0000
  Rh  Rh2       1.0  0.39000  0.59900  0.60600  1.0000
  Rh  Rh3       1.0  0.61000  0.09900  0.39400  1.0000
  Rh  Rh4       1.0  0.89000  0.90100  0.89400  1.0000
  Rh  Rh5       1.0  0.89000  0.59900  0.89400  1.0000
  Rh  Rh6       1.0  0.61000  0.40100  0.39400  1.0000
  Rh  Rh7       1.0  0.39000  0.90100  0.60600  1.0000
  Rh  Rh8       1.0  0.11000  0.09900  0.10600  1.0000
