data_image0
_chemical_formula_structural       In4Ni2Y2
_chemical_formula_sum              "In4 Ni2 Y2"
_cell_length_a       4.34779
_cell_length_b       5.67864
_cell_length_c       7.37189
_cell_angle_alpha    90
_cell_angle_beta     90
_cell_angle_gamma    67.4915

_space_group_name_H-M_alt    "P 1"
_space_group_IT_number       1

loop_
  _space_group_symop_operation_xyz
  'x, y, z'

loop_
  _atom_site_type_symbol
  _atom_site_label
  _atom_site_symmetry_multiplicity
  _atom_site_fract_x
  _atom_site_fract_y
  _atom_site_fract_z
  _atom_site_occupancy
  In  In1       1.0  0.35700  0.28700  0.04930  1.0000
  In  In2       1.0  0.35700  0.28700  0.45100  1.0000
  In  In3       1.0  0.64300  0.71300  0.54900  1.0000
  In  In4       1.0  0.64300  0.71300  0.95100  1.0000
  Ni  Ni1       1.0  0.78800  0.42400  0.25000  1.0000
  Ni  Ni2       1.0  0.21200  0.57600  0.75000  1.0000
  Y   Y1        1.0  0.06830  0.86300  0.25000  1.0000
  Y   Y2        1.0  0.93200  0.13700  0.75000  1.0000
