data_image0
_chemical_formula_structural       CdF6Rh
_chemical_formula_sum              "Cd1 F6 Rh1"
_cell_length_a       4.93137
_cell_length_b       4.93156
_cell_length_c       5.47724
_cell_angle_alpha    116.76
_cell_angle_beta     116.757
_cell_angle_gamma    59.9985

_space_group_name_H-M_alt    "P 1"
_space_group_IT_number       1

loop_
  _space_group_symop_operation_xyz
  'x, y, z'

loop_
  _atom_site_type_symbol
  _atom_site_label
  _atom_site_symmetry_multiplicity
  _atom_site_fract_x
  _atom_site_fract_y
  _atom_site_fract_z
  _atom_site_occupancy
  Cd  Cd1       1.0  0.50000  0.50000  0.50000  1.0000
  F   F1        1.0  0.03480  0.78300  0.23700  1.0000
  F   F2        1.0  0.78300  0.41900  0.23700  1.0000
  F   F3        1.0  0.41900  0.03480  0.23700  1.0000
  F   F4        1.0  0.58100  0.96500  0.76300  1.0000
  F   F5        1.0  0.21700  0.58100  0.76300  1.0000
  F   F6        1.0  0.96500  0.21700  0.76300  1.0000
  Rh  Rh1       1.0  0.00000  0.00000  0.00000  1.0000
