data_image0
_chemical_formula_structural       O18Ti6V4
_chemical_formula_sum              "O18 Ti6 V4"
_cell_length_a       8.84691
_cell_length_b       8.84691
_cell_length_c       7.07102
_cell_angle_alpha    74.284
_cell_angle_beta     105.716
_cell_angle_gamma    147.142

_space_group_name_H-M_alt    "P 1"
_space_group_IT_number       1

loop_
  _space_group_symop_operation_xyz
  'x, y, z'

loop_
  _atom_site_type_symbol
  _atom_site_label
  _atom_site_symmetry_multiplicity
  _atom_site_fract_x
  _atom_site_fract_y
  _atom_site_fract_z
  _atom_site_occupancy
  O   O1        1.0  0.96500  0.74800  0.52600  1.0000
  O   O2        1.0  0.25200  0.03500  0.02550  1.0000
  O   O3        1.0  0.03500  0.25200  0.47400  1.0000
  O   O4        1.0  0.74800  0.96500  0.97400  1.0000
  O   O5        1.0  0.49300  0.84800  0.57000  1.0000
  O   O6        1.0  0.84800  0.49300  0.93000  1.0000
  O   O7        1.0  0.50700  0.15200  0.43000  1.0000
  O   O8        1.0  0.15200  0.50700  0.07030  1.0000
  O   O9        1.0  0.38200  0.29100  0.63000  1.0000
  O   O10       1.0  0.29100  0.38200  0.87000  1.0000
  O   O11       1.0  0.61800  0.70900  0.37000  1.0000
  O   O12       1.0  0.70900  0.61800  0.13000  1.0000
  O   O13       1.0  0.39900  0.95100  0.82000  1.0000
  O   O14       1.0  0.95100  0.39900  0.68000  1.0000
  O   O15       1.0  0.60100  0.04940  0.18000  1.0000
  O   O16       1.0  0.04940  0.60100  0.32000  1.0000
  O   O17       1.0  0.81900  0.81900  0.75000  1.0000
  O   O18       1.0  0.18100  0.18100  0.25000  1.0000
  Ti  Ti1       1.0  0.78100  0.21300  0.42300  1.0000
  Ti  Ti2       1.0  0.21300  0.78100  0.07690  1.0000
  Ti  Ti3       1.0  0.21900  0.78700  0.57700  1.0000
  Ti  Ti4       1.0  0.78700  0.21900  0.92300  1.0000
  Ti  Ti5       1.0  1.00000  0.00000  0.50000  1.0000
  Ti  Ti6       1.0  0.00000  0.00000  0.00000  1.0000
  V   V1        1.0  0.42600  0.57500  0.60100  1.0000
  V   V2        1.0  0.57500  0.42600  0.89900  1.0000
  V   V3        1.0  0.57400  0.42500  0.39900  1.0000
  V   V4        1.0  0.42500  0.57400  0.10100  1.0000
