data_image0
_chemical_formula_structural       B2C2Nd4
_chemical_formula_sum              "B2 C2 Nd4"
_cell_length_a       3.65932
_cell_length_b       6.84434
_cell_length_c       7.43353
_cell_angle_alpha    96.109
_cell_angle_beta     104.249
_cell_angle_gamma    74.4949

_space_group_name_H-M_alt    "P 1"
_space_group_IT_number       1

loop_
  _space_group_symop_operation_xyz
  'x, y, z'

loop_
  _atom_site_type_symbol
  _atom_site_label
  _atom_site_symmetry_multiplicity
  _atom_site_fract_x
  _atom_site_fract_y
  _atom_site_fract_z
  _atom_site_occupancy
  B   B1        1.0  0.07520  0.95700  0.10800  1.0000
  B   B2        1.0  0.92500  0.04280  0.89200  1.0000
  C   C1        1.0  0.12600  0.04910  0.30200  1.0000
  C   C2        1.0  0.87400  0.95100  0.69800  1.0000
  Nd  Nd1       1.0  0.44000  0.26000  0.14000  1.0000
  Nd  Nd2       1.0  0.79400  0.79400  0.38300  1.0000
  Nd  Nd3       1.0  0.20600  0.20600  0.61700  1.0000
  Nd  Nd4       1.0  0.56000  0.74000  0.86000  1.0000
