data_image0
_chemical_formula_structural       CdF6Ti
_chemical_formula_sum              "Cd1 F6 Ti1"
_cell_length_a       4.95844
_cell_length_b       4.95844
_cell_length_c       5.45308
_cell_angle_alpha    62.9578
_cell_angle_beta     117.042
_cell_angle_gamma    120

_space_group_name_H-M_alt    "P 1"
_space_group_IT_number       1

loop_
  _space_group_symop_operation_xyz
  'x, y, z'

loop_
  _atom_site_type_symbol
  _atom_site_label
  _atom_site_symmetry_multiplicity
  _atom_site_fract_x
  _atom_site_fract_y
  _atom_site_fract_z
  _atom_site_occupancy
  Cd  Cd1       1.0  0.00000  0.00000  0.00000  1.0000
  F   F1        1.0  0.45500  0.28500  0.26800  1.0000
  F   F2        1.0  0.71500  0.90300  0.26800  1.0000
  F   F3        1.0  0.09710  0.54500  0.26800  1.0000
  F   F4        1.0  0.90300  0.45500  0.73200  1.0000
  F   F5        1.0  0.28500  0.09710  0.73200  1.0000
  F   F6        1.0  0.54500  0.71500  0.73200  1.0000
  Ti  Ti1       1.0  0.50000  0.50000  0.50000  1.0000
