data_image0
_chemical_formula_structural       Ge7Ni16Zr6
_chemical_formula_sum              "Ge7 Ni16 Zr6"
_cell_length_a       8.22965
_cell_length_b       8.22965
_cell_length_c       8.22965
_cell_angle_alpha    60
_cell_angle_beta     60
_cell_angle_gamma    60

_space_group_name_H-M_alt    "P 1"
_space_group_IT_number       1

loop_
  _space_group_symop_operation_xyz
  'x, y, z'

loop_
  _atom_site_type_symbol
  _atom_site_label
  _atom_site_symmetry_multiplicity
  _atom_site_fract_x
  _atom_site_fract_y
  _atom_site_fract_z
  _atom_site_occupancy
  Ge  Ge1       1.0  0.50000  0.00000  0.00000  1.0000
  Ge  Ge2       1.0  0.00000  0.50000  0.50000  1.0000
  Ge  Ge3       1.0  0.00000  0.50000  0.00000  1.0000
  Ge  Ge4       1.0  0.00000  0.00000  0.50000  1.0000
  Ge  Ge5       1.0  0.50000  0.00000  0.50000  1.0000
  Ge  Ge6       1.0  0.50000  0.50000  0.00000  1.0000
  Ge  Ge7       1.0  0.50000  0.50000  0.50000  1.0000
  Ni  Ni1       1.0  0.85600  0.38100  0.38100  1.0000
  Ni  Ni2       1.0  0.38100  0.85600  0.38100  1.0000
  Ni  Ni3       1.0  0.61900  0.61900  0.61900  1.0000
  Ni  Ni4       1.0  0.61900  0.61900  0.14400  1.0000
  Ni  Ni5       1.0  0.49300  0.16900  0.16900  1.0000
  Ni  Ni6       1.0  0.16900  0.49300  0.16900  1.0000
  Ni  Ni7       1.0  0.83100  0.83100  0.83100  1.0000
  Ni  Ni8       1.0  0.83100  0.83100  0.50700  1.0000
  Ni  Ni9       1.0  0.83100  0.50700  0.83100  1.0000
  Ni  Ni10      1.0  0.50700  0.83100  0.83100  1.0000
  Ni  Ni11      1.0  0.38100  0.38100  0.85600  1.0000
  Ni  Ni12      1.0  0.38100  0.38100  0.38100  1.0000
  Ni  Ni13      1.0  0.16900  0.16900  0.49300  1.0000
  Ni  Ni14      1.0  0.16900  0.16900  0.16900  1.0000
  Ni  Ni15      1.0  0.14400  0.61900  0.61900  1.0000
  Ni  Ni16      1.0  0.61900  0.14400  0.61900  1.0000
  Zr  Zr1       1.0  0.79400  0.79400  0.20600  1.0000
  Zr  Zr2       1.0  0.79400  0.20600  0.79400  1.0000
  Zr  Zr3       1.0  0.20600  0.20600  0.79400  1.0000
  Zr  Zr4       1.0  0.20600  0.79400  0.20600  1.0000
  Zr  Zr5       1.0  0.20600  0.79400  0.79400  1.0000
  Zr  Zr6       1.0  0.79400  0.20600  0.20600  1.0000
