data_image0
_chemical_formula_structural       Co16Ge7Zr6
_chemical_formula_sum              "Co16 Ge7 Zr6"
_cell_length_a       8.16778
_cell_length_b       8.16778
_cell_length_c       8.16778
_cell_angle_alpha    60
_cell_angle_beta     60
_cell_angle_gamma    60

_space_group_name_H-M_alt    "P 1"
_space_group_IT_number       1

loop_
  _space_group_symop_operation_xyz
  'x, y, z'

loop_
  _atom_site_type_symbol
  _atom_site_label
  _atom_site_symmetry_multiplicity
  _atom_site_fract_x
  _atom_site_fract_y
  _atom_site_fract_z
  _atom_site_occupancy
  Co  Co1       1.0  0.13800  0.62100  0.62100  1.0000
  Co  Co2       1.0  0.62100  0.13800  0.62100  1.0000
  Co  Co3       1.0  0.62100  0.62100  0.13800  1.0000
  Co  Co4       1.0  0.62100  0.62100  0.62100  1.0000
  Co  Co5       1.0  0.37900  0.86200  0.37900  1.0000
  Co  Co6       1.0  0.86200  0.37900  0.37900  1.0000
  Co  Co7       1.0  0.37900  0.37900  0.86200  1.0000
  Co  Co8       1.0  0.37900  0.37900  0.37900  1.0000
  Co  Co9       1.0  0.82900  0.82900  0.51200  1.0000
  Co  Co10      1.0  0.82900  0.82900  0.82900  1.0000
  Co  Co11      1.0  0.17100  0.48800  0.17100  1.0000
  Co  Co12      1.0  0.48800  0.17100  0.17100  1.0000
  Co  Co13      1.0  0.17100  0.17100  0.48800  1.0000
  Co  Co14      1.0  0.17100  0.17100  0.17100  1.0000
  Co  Co15      1.0  0.51200  0.82900  0.82900  1.0000
  Co  Co16      1.0  0.82900  0.51200  0.82900  1.0000
  Ge  Ge1       1.0  0.50000  0.50000  0.50000  1.0000
  Ge  Ge2       1.0  0.50000  0.50000  0.00000  1.0000
  Ge  Ge3       1.0  0.50000  0.00000  0.50000  1.0000
  Ge  Ge4       1.0  0.00000  0.00000  0.50000  1.0000
  Ge  Ge5       1.0  0.00000  0.50000  1.00000  1.0000
  Ge  Ge6       1.0  0.00000  0.50000  0.50000  1.0000
  Ge  Ge7       1.0  0.50000  0.00000  1.00000  1.0000
  Zr  Zr1       1.0  0.79400  0.79400  0.20600  1.0000
  Zr  Zr2       1.0  0.79400  0.20600  0.79400  1.0000
  Zr  Zr3       1.0  0.20600  0.20600  0.79400  1.0000
  Zr  Zr4       1.0  0.20600  0.79400  0.20600  1.0000
  Zr  Zr5       1.0  0.20600  0.79400  0.79400  1.0000
  Zr  Zr6       1.0  0.79400  0.20600  0.20600  1.0000
