data_image0
_chemical_formula_structural       C128Na2
_chemical_formula_sum              "C128 Na2"
_cell_length_a       5.00659
_cell_length_b       5.00658
_cell_length_c       45.0246
_cell_angle_alpha    90.0012
_cell_angle_beta     89.9989
_cell_angle_gamma    120.004

_space_group_name_H-M_alt    "P 1"
_space_group_IT_number       1

loop_
  _space_group_symop_operation_xyz
  'x, y, z'

loop_
  _atom_site_type_symbol
  _atom_site_label
  _atom_site_symmetry_multiplicity
  _atom_site_fract_x
  _atom_site_fract_y
  _atom_site_fract_z
  _atom_site_occupancy
  C   C1        1.0  0.33300  0.66700  0.70100  1.0000
  C   C2        1.0  0.33300  0.66700  0.79900  1.0000
  C   C3        1.0  0.66700  0.33300  0.29900  1.0000
  C   C4        1.0  0.00003  0.00008  0.14400  1.0000
  C   C5        1.0  0.00002  1.00000  0.64400  1.0000
  C   C6        1.0  0.00002  0.00000  0.85600  1.0000
  C   C7        1.0  0.00001  0.00002  0.35600  1.0000
  C   C8        1.0  0.83300  0.16700  0.14400  1.0000
  C   C9        1.0  0.33300  0.16700  0.14400  1.0000
  C   C10       1.0  0.83300  0.66700  0.14400  1.0000
  C   C11       1.0  0.16700  0.33300  0.64400  1.0000
  C   C12       1.0  0.66700  0.83300  0.64400  1.0000
  C   C13       1.0  0.16700  0.83300  0.64400  1.0000
  C   C14       1.0  0.16700  0.83300  0.85600  1.0000
  C   C15       1.0  0.16700  0.33300  0.85600  1.0000
  C   C16       1.0  0.83300  0.66700  0.35600  1.0000
  C   C17       1.0  0.83300  0.16700  0.35600  1.0000
  C   C18       1.0  0.66700  0.83300  0.85600  1.0000
  C   C19       1.0  0.33300  0.16700  0.35600  1.0000
  C   C20       1.0  0.00000  0.50000  0.64400  1.0000
  C   C21       1.0  0.50000  0.50000  0.64400  1.0000
  C   C22       1.0  0.50000  0.00001  0.64400  1.0000
  C   C23       1.0  0.00000  0.50000  0.85600  1.0000
  C   C24       1.0  0.50000  0.50000  0.85600  1.0000
  C   C25       1.0  0.50000  0.50000  0.35600  1.0000
  C   C26       1.0  0.00001  0.50000  0.35600  1.0000
  C   C27       1.0  0.50000  0.00000  0.85600  1.0000
  C   C28       1.0  0.50000  1.00000  0.35600  1.0000
  C   C29       1.0  0.16700  0.33300  0.08580  1.0000
  C   C30       1.0  0.16700  0.83300  0.08580  1.0000
  C   C31       1.0  0.66700  0.83300  0.08580  1.0000
  C   C32       1.0  0.33300  0.16700  0.58600  1.0000
  C   C33       1.0  0.83300  0.16700  0.58600  1.0000
  C   C34       1.0  0.83300  0.66700  0.58600  1.0000
  C   C35       1.0  0.33300  0.16700  0.91400  1.0000
  C   C36       1.0  0.83300  0.16700  0.91400  1.0000
  C   C37       1.0  0.16700  0.83300  0.41400  1.0000
  C   C38       1.0  0.66700  0.83300  0.41400  1.0000
  C   C39       1.0  0.83300  0.66700  0.91400  1.0000
  C   C40       1.0  0.16700  0.33300  0.41400  1.0000
  C   C41       1.0  0.00000  0.00000  0.20000  1.0000
  C   C42       1.0  0.16600  0.33300  0.20100  1.0000
  C   C43       1.0  0.16600  0.83400  0.20100  1.0000
  C   C44       1.0  0.66700  0.83400  0.20100  1.0000
  C   C45       1.0  0.33300  0.16600  0.70100  1.0000
  C   C46       1.0  0.83400  0.16600  0.70100  1.0000
  C   C47       1.0  0.83400  0.66700  0.70100  1.0000
  C   C48       1.0  0.33300  0.16600  0.79900  1.0000
  C   C49       1.0  0.83400  0.16600  0.79900  1.0000
  C   C50       1.0  0.16600  0.83400  0.29900  1.0000
  C   C51       1.0  0.66700  0.83400  0.29900  1.0000
  C   C52       1.0  0.83400  0.66700  0.79900  1.0000
  C   C53       1.0  0.16600  0.33300  0.29900  1.0000
  C   C54       1.0  0.50100  0.00099  0.20100  1.0000
  C   C55       1.0  0.50100  0.49900  0.20100  1.0000
  C   C56       1.0  0.99900  0.49900  0.20100  1.0000
  C   C57       1.0  0.00109  0.50100  0.70100  1.0000
  C   C58       1.0  0.50000  0.50100  0.70100  1.0000
  C   C59       1.0  0.50000  0.99900  0.70100  1.0000
  C   C60       1.0  0.49900  0.99900  0.79900  1.0000
  C   C61       1.0  0.50100  0.00100  0.29900  1.0000
  C   C62       1.0  0.66700  0.33300  0.08580  1.0000
  C   C63       1.0  0.33300  0.66700  0.58600  1.0000
  C   C64       1.0  0.33300  0.66700  0.91400  1.0000
  C   C65       1.0  0.66700  0.33300  0.41400  1.0000
  C   C66       1.0  0.50000  1.00000  0.02850  1.0000
  C   C67       1.0  0.50000  0.50000  0.02850  1.0000
  C   C68       1.0  0.00000  0.50000  0.02850  1.0000
  C   C69       1.0  0.00001  0.50000  0.52900  1.0000
  C   C70       1.0  0.50000  0.50000  0.52900  1.0000
  C   C71       1.0  0.50000  0.00009  0.52900  1.0000
  C   C72       1.0  0.00000  0.50000  0.97100  1.0000
  C   C73       1.0  0.50000  0.50000  0.97100  1.0000
  C   C74       1.0  0.50000  0.50000  0.47100  1.0000
  C   C75       1.0  0.00012  0.50000  0.47100  1.0000
  C   C76       1.0  0.50000  1.00000  0.97100  1.0000
  C   C77       1.0  0.50000  0.00000  0.47100  1.0000
  C   C78       1.0  0.83300  0.16700  0.02860  1.0000
  C   C79       1.0  0.66700  0.83300  0.52900  1.0000
  C   C80       1.0  0.16700  0.83300  0.52900  1.0000
  C   C81       1.0  0.16700  0.83300  0.97100  1.0000
  C   C82       1.0  0.16700  0.33300  0.97100  1.0000
  C   C83       1.0  0.83300  0.66700  0.47100  1.0000
  C   C84       1.0  0.83300  0.16700  0.47100  1.0000
  C   C85       1.0  0.66700  0.83300  0.97100  1.0000
  C   C86       1.0  0.33300  0.16700  0.47100  1.0000
  C   C87       1.0  0.00001  0.00002  0.08570  1.0000
  C   C88       1.0  0.00000  0.00002  0.58600  1.0000
  C   C89       1.0  1.00000  1.00000  0.91400  1.0000
  C   C90       1.0  0.00000  0.00000  0.41400  1.0000
  C   C91       1.0  0.00000  0.00000  0.02860  1.0000
  C   C92       1.0  0.00002  0.00007  0.52900  1.0000
  C   C93       1.0  0.00000  0.00000  0.97100  1.0000
  C   C94       1.0  0.00010  0.00001  0.47100  1.0000
  C   C95       1.0  0.33300  0.66700  0.02860  1.0000
  C   C96       1.0  0.66700  0.33300  0.52900  1.0000
  C   C97       1.0  0.00000  0.50000  0.08580  1.0000
  C   C98       1.0  0.00008  0.50000  0.58600  1.0000
  C   C99       1.0  0.50000  0.50000  0.58600  1.0000
  C   C100      1.0  0.50000  0.00000  0.58600  1.0000
  C   C101      1.0  0.00007  0.50000  0.91400  1.0000
  C   C102      1.0  0.50000  0.50000  0.91400  1.0000
  C   C103      1.0  0.50000  0.50000  0.41400  1.0000
  C   C104      1.0  0.00000  0.50000  0.41400  1.0000
  C   C105      1.0  0.50000  1.00000  0.91400  1.0000
  C   C106      1.0  0.50000  0.00004  0.41400  1.0000
  C   C107      1.0  0.33300  0.66700  0.14400  1.0000
  C   C108      1.0  0.66700  0.33300  0.64400  1.0000
  C   C109      1.0  0.66700  0.33300  0.85600  1.0000
  C   C110      1.0  0.33300  0.66700  0.35600  1.0000
  C   C111      1.0  0.66700  0.33300  0.97100  1.0000
  C   C112      1.0  0.33300  0.66700  0.47100  1.0000
  C   C113      1.0  0.50000  0.00008  0.08580  1.0000
  C   C114      1.0  0.33300  0.16700  0.02860  1.0000
  C   C115      1.0  0.50000  0.50000  0.08580  1.0000
  C   C116      1.0  0.83300  0.66700  0.02860  1.0000
  C   C117      1.0  0.16700  0.33300  0.52900  1.0000
  C   C118      1.0  0.00107  0.50100  0.79900  1.0000
  C   C119      1.0  0.49900  0.50100  0.79900  1.0000
  C   C120      1.0  0.50100  0.49900  0.29900  1.0000
  C   C121      1.0  0.99900  0.49900  0.29900  1.0000
  C   C122      1.0  0.00004  0.00007  0.70100  1.0000
  C   C123      1.0  0.00001  0.00002  0.79900  1.0000
  C   C124      1.0  0.00002  0.00000  0.29900  1.0000
  C   C125      1.0  0.50000  0.00003  0.14400  1.0000
  C   C126      1.0  0.50000  0.50000  0.14400  1.0000
  C   C127      1.0  0.00004  0.50000  0.14400  1.0000
  C   C128      1.0  0.66700  0.33300  0.20100  1.0000
  Na  Na1       1.0  0.66700  0.33300  0.75000  1.0000
  Na  Na2       1.0  0.33300  0.66700  0.25000  1.0000
