data_image0
_chemical_formula_structural       C4F12Na4O8Sb4
_chemical_formula_sum              "C4 F12 Na4 O8 Sb4"
_cell_length_a       8.70099
_cell_length_b       8.70099
_cell_length_c       7.53503
_cell_angle_alpha    80.5302
_cell_angle_beta     99.4698
_cell_angle_gamma    139.351

_space_group_name_H-M_alt    "P 1"
_space_group_IT_number       1

loop_
  _space_group_symop_operation_xyz
  'x, y, z'

loop_
  _atom_site_type_symbol
  _atom_site_label
  _atom_site_symmetry_multiplicity
  _atom_site_fract_x
  _atom_site_fract_y
  _atom_site_fract_z
  _atom_site_occupancy
  C   C1        1.0  0.89500  0.96100  0.53200  1.0000
  C   C2        1.0  0.96100  0.89500  0.96800  1.0000
  C   C3        1.0  0.10500  0.03880  0.46800  1.0000
  C   C4        1.0  0.03880  0.10500  0.03200  1.0000
  F   F1        1.0  0.19300  0.44400  0.37600  1.0000
  F   F2        1.0  0.44400  0.19300  0.12400  1.0000
  F   F3        1.0  0.80700  0.55600  0.62400  1.0000
  F   F4        1.0  0.55600  0.80700  0.87600  1.0000
  F   F5        1.0  0.40400  0.79700  0.54500  1.0000
  F   F6        1.0  0.79700  0.40400  0.95500  1.0000
  F   F7        1.0  0.94800  0.55700  0.29800  1.0000
  F   F8        1.0  0.55700  0.94800  0.20200  1.0000
  F   F9        1.0  0.59600  0.20300  0.45500  1.0000
  F   F10       1.0  0.20300  0.59600  0.04530  1.0000
  F   F11       1.0  0.05210  0.44300  0.70200  1.0000
  F   F12       1.0  0.44300  0.05210  0.79800  1.0000
  Na  Na1       1.0  0.69800  0.11000  0.69500  1.0000
  Na  Na2       1.0  0.11000  0.69800  0.80500  1.0000
  Na  Na3       1.0  0.30200  0.89000  0.30500  1.0000
  Na  Na4       1.0  0.89000  0.30200  0.19500  1.0000
  O   O1        1.0  0.90500  0.06350  0.13000  1.0000
  O   O2        1.0  0.69000  0.76500  0.48200  1.0000
  O   O3        1.0  0.76500  0.69000  0.01770  1.0000
  O   O4        1.0  0.31000  0.23500  0.51800  1.0000
  O   O5        1.0  0.23500  0.31000  0.98200  1.0000
  O   O6        1.0  0.93600  0.09480  0.63000  1.0000
  O   O7        1.0  0.09480  0.93600  0.87000  1.0000
  O   O8        1.0  0.06350  0.90500  0.37000  1.0000
  Sb  Sb1       1.0  0.31100  0.50700  0.63600  1.0000
  Sb  Sb2       1.0  0.50700  0.31100  0.86400  1.0000
  Sb  Sb3       1.0  0.68900  0.49300  0.36400  1.0000
  Sb  Sb4       1.0  0.49300  0.68900  0.13600  1.0000
