data_image0
_chemical_formula_structural       Be4C4F16H32Li4N4O4
_chemical_formula_sum              "Be4 C4 F16 H32 Li4 N4 O4"
_cell_length_a       11.1939
_cell_length_b       4.22752
_cell_length_c       8.65432
_cell_angle_alpha    90
_cell_angle_beta     94.4317
_cell_angle_gamma    90

_space_group_name_H-M_alt    "P 1"
_space_group_IT_number       1

loop_
  _space_group_symop_operation_xyz
  'x, y, z'

loop_
  _atom_site_type_symbol
  _atom_site_label
  _atom_site_symmetry_multiplicity
  _atom_site_fract_x
  _atom_site_fract_y
  _atom_site_fract_z
  _atom_site_occupancy
  Be  Be1       1.0  0.36200  0.85100  0.92200  1.0000
  Be  Be2       1.0  0.63800  0.35100  0.57800  1.0000
  Be  Be3       1.0  0.63800  0.14900  0.07810  1.0000
  Be  Be4       1.0  0.36200  0.64900  0.42200  1.0000
  C   C1        1.0  0.12200  0.26200  0.51600  1.0000
  C   C2        1.0  0.87800  0.76200  0.98400  1.0000
  C   C3        1.0  0.87800  0.73800  0.48400  1.0000
  C   C4        1.0  0.12200  0.23800  0.01580  1.0000
  F   F1        1.0  0.25000  0.71400  0.83600  1.0000
  F   F2        1.0  0.75000  0.21400  0.66400  1.0000
  F   F3        1.0  0.75000  0.28600  0.16400  1.0000
  F   F4        1.0  0.64600  0.79500  0.10700  1.0000
  F   F5        1.0  0.35400  0.29500  0.39300  1.0000
  F   F6        1.0  0.64300  0.23700  0.91100  1.0000
  F   F7        1.0  0.35700  0.73700  0.58900  1.0000
  F   F8        1.0  0.35700  0.76300  0.08910  1.0000
  F   F9        1.0  0.64300  0.26300  0.41100  1.0000
  F   F10       1.0  0.48400  0.75100  0.86400  1.0000
  F   F11       1.0  0.51600  0.25100  0.63600  1.0000
  F   F12       1.0  0.51600  0.24900  0.13600  1.0000
  F   F13       1.0  0.48400  0.74900  0.36400  1.0000
  F   F14       1.0  0.25000  0.78600  0.33600  1.0000
  F   F15       1.0  0.35400  0.20500  0.89300  1.0000
  F   F16       1.0  0.64600  0.70500  0.60700  1.0000
  H   H1        1.0  0.99500  0.04400  0.76000  1.0000
  H   H2        1.0  0.00506  0.54400  0.74000  1.0000
  H   H3        1.0  0.00506  0.95600  0.24000  1.0000
  H   H4        1.0  0.99500  0.45600  0.26000  1.0000
  H   H5        1.0  0.03740  0.25000  0.56700  1.0000
  H   H6        1.0  0.96300  0.75000  0.93300  1.0000
  H   H7        1.0  0.96300  0.75000  0.43300  1.0000
  H   H8        1.0  0.03740  0.25000  0.06690  1.0000
  H   H9        1.0  0.13100  0.48900  0.45900  1.0000
  H   H10       1.0  0.86900  0.98900  0.04060  1.0000
  H   H11       1.0  0.86900  0.51100  0.54100  1.0000
  H   H12       1.0  0.13100  0.01110  0.95900  1.0000
  H   H13       1.0  0.87500  0.23900  0.72600  1.0000
  H   H14       1.0  0.12800  0.06990  0.43400  1.0000
  H   H15       1.0  0.87200  0.57000  0.06570  1.0000
  H   H16       1.0  0.87200  0.93000  0.56600  1.0000
  H   H17       1.0  0.12800  0.43000  0.93400  1.0000
  H   H18       1.0  0.23500  0.41600  0.70800  1.0000
  H   H19       1.0  0.76500  0.91600  0.79200  1.0000
  H   H20       1.0  0.76500  0.58400  0.29200  1.0000
  H   H21       1.0  0.23500  0.08360  0.20800  1.0000
  H   H22       1.0  0.30000  0.20400  0.57700  1.0000
  H   H23       1.0  0.70000  0.70400  0.92300  1.0000
  H   H24       1.0  0.70000  0.79600  0.42300  1.0000
  H   H25       1.0  0.30000  0.29600  0.07690  1.0000
  H   H26       1.0  0.21700  0.02450  0.69700  1.0000
  H   H27       1.0  0.78300  0.52400  0.80300  1.0000
  H   H28       1.0  0.78300  0.97600  0.30300  1.0000
  H   H29       1.0  0.21700  0.47600  0.19700  1.0000
  H   H30       1.0  0.12500  0.73900  0.77400  1.0000
  H   H31       1.0  0.12500  0.76100  0.27400  1.0000
  H   H32       1.0  0.87500  0.26100  0.22600  1.0000
  Li  Li1       1.0  0.50500  0.82900  0.66100  1.0000
  Li  Li2       1.0  0.50500  0.67100  0.16100  1.0000
  Li  Li3       1.0  0.49500  0.17100  0.33900  1.0000
  Li  Li4       1.0  0.49500  0.32900  0.83900  1.0000
  N   N1        1.0  0.22200  0.22700  0.63300  1.0000
  N   N2        1.0  0.77800  0.72700  0.86700  1.0000
  N   N3        1.0  0.77800  0.77300  0.36700  1.0000
  N   N4        1.0  0.22200  0.27300  0.13300  1.0000
  O   O1        1.0  0.95300  0.25500  0.78600  1.0000
  O   O2        1.0  0.04710  0.75500  0.71400  1.0000
  O   O3        1.0  0.04710  0.74500  0.21400  1.0000
  O   O4        1.0  0.95300  0.24500  0.28600  1.0000
