data_image0
_chemical_formula_structural       Fe20Sn4U4
_chemical_formula_sum              "Fe20 Sn4 U4"
_cell_length_a       7.91439
_cell_length_b       4.70492
_cell_length_c       10.4007
_cell_angle_alpha    90
_cell_angle_beta     90
_cell_angle_gamma    90

_space_group_name_H-M_alt    "P 1"
_space_group_IT_number       1

loop_
  _space_group_symop_operation_xyz
  'x, y, z'

loop_
  _atom_site_type_symbol
  _atom_site_label
  _atom_site_symmetry_multiplicity
  _atom_site_fract_x
  _atom_site_fract_y
  _atom_site_fract_z
  _atom_site_occupancy
  Fe  Fe1       1.0  0.68500  0.75000  0.75000  1.0000
  Fe  Fe2       1.0  0.81500  0.25000  0.25000  1.0000
  Fe  Fe3       1.0  0.18500  0.75000  0.75000  1.0000
  Fe  Fe4       1.0  0.31500  0.25000  0.25000  1.0000
  Fe  Fe5       1.0  0.93400  0.75000  0.89600  1.0000
  Fe  Fe6       1.0  0.56600  0.25000  0.39600  1.0000
  Fe  Fe7       1.0  0.43400  0.75000  0.60400  1.0000
  Fe  Fe8       1.0  0.06650  0.25000  0.10400  1.0000
  Fe  Fe9       1.0  0.60500  0.75000  0.97800  1.0000
  Fe  Fe10      1.0  0.89500  0.25000  0.47800  1.0000
  Fe  Fe11      1.0  0.10500  0.75000  0.52200  1.0000
  Fe  Fe12      1.0  0.39500  0.25000  0.02200  1.0000
  Fe  Fe13      1.0  0.07200  0.99900  0.31300  1.0000
  Fe  Fe14      1.0  0.42800  0.00144  0.81300  1.0000
  Fe  Fe15      1.0  0.57200  0.50100  0.18700  1.0000
  Fe  Fe16      1.0  0.92800  0.49900  0.68700  1.0000
  Fe  Fe17      1.0  0.92800  0.00144  0.68700  1.0000
  Fe  Fe18      1.0  0.57200  0.99900  0.18700  1.0000
  Fe  Fe19      1.0  0.42800  0.49900  0.81300  1.0000
  Fe  Fe20      1.0  0.07200  0.50100  0.31300  1.0000
  Sn  Sn1       1.0  0.87200  0.75000  0.14000  1.0000
  Sn  Sn2       1.0  0.62800  0.25000  0.64000  1.0000
  Sn  Sn3       1.0  0.37200  0.75000  0.36000  1.0000
  Sn  Sn4       1.0  0.12800  0.25000  0.86000  1.0000
  U   U1        1.0  0.76200  0.75000  0.44200  1.0000
  U   U2        1.0  0.73800  0.25000  0.94200  1.0000
  U   U3        1.0  0.26200  0.75000  0.05800  1.0000
  U   U4        1.0  0.23800  0.25000  0.55800  1.0000
