data_image0
_chemical_formula_structural       Gd16Ni4Te8
_chemical_formula_sum              "Gd16 Ni4 Te8"
_cell_length_a       15.5909
_cell_length_b       4.12882
_cell_length_c       11.7936
_cell_angle_alpha    90
_cell_angle_beta     90
_cell_angle_gamma    90

_space_group_name_H-M_alt    "P 1"
_space_group_IT_number       1

loop_
  _space_group_symop_operation_xyz
  'x, y, z'

loop_
  _atom_site_type_symbol
  _atom_site_label
  _atom_site_symmetry_multiplicity
  _atom_site_fract_x
  _atom_site_fract_y
  _atom_site_fract_z
  _atom_site_occupancy
  Gd  Gd1       1.0  0.89700  0.25000  0.03500  1.0000
  Gd  Gd2       1.0  0.60300  0.75000  0.53500  1.0000
  Gd  Gd3       1.0  0.39700  0.25000  0.46500  1.0000
  Gd  Gd4       1.0  0.22300  0.75000  0.62900  1.0000
  Gd  Gd5       1.0  0.27700  0.25000  0.12900  1.0000
  Gd  Gd6       1.0  0.95800  0.75000  0.30000  1.0000
  Gd  Gd7       1.0  0.54200  0.25000  0.80000  1.0000
  Gd  Gd8       1.0  0.45800  0.75000  0.20000  1.0000
  Gd  Gd9       1.0  0.04190  0.25000  0.70000  1.0000
  Gd  Gd10      1.0  0.87000  0.75000  0.58300  1.0000
  Gd  Gd11      1.0  0.63000  0.25000  0.08310  1.0000
  Gd  Gd12      1.0  0.37000  0.75000  0.91700  1.0000
  Gd  Gd13      1.0  0.13000  0.25000  0.41700  1.0000
  Gd  Gd14      1.0  0.10300  0.75000  0.96500  1.0000
  Gd  Gd15      1.0  0.72300  0.75000  0.87100  1.0000
  Gd  Gd16      1.0  0.77700  0.25000  0.37100  1.0000
  Ni  Ni1       1.0  0.95400  0.25000  0.47200  1.0000
  Ni  Ni2       1.0  0.54600  0.75000  0.97200  1.0000
  Ni  Ni3       1.0  0.45400  0.25000  0.02780  1.0000
  Ni  Ni4       1.0  0.04600  0.75000  0.52800  1.0000
  Te  Te1       1.0  0.72000  0.25000  0.65800  1.0000
  Te  Te2       1.0  0.78000  0.75000  0.15800  1.0000
  Te  Te3       1.0  0.22000  0.25000  0.84200  1.0000
  Te  Te4       1.0  0.28000  0.75000  0.34200  1.0000
  Te  Te5       1.0  0.92600  0.75000  0.84400  1.0000
  Te  Te6       1.0  0.57400  0.25000  0.34400  1.0000
  Te  Te7       1.0  0.42600  0.75000  0.65600  1.0000
  Te  Te8       1.0  0.07430  0.25000  0.15600  1.0000
