data_image0
_chemical_formula_structural       C4Co8W16
_chemical_formula_sum              "C4 Co8 W16"
_cell_length_a       8.00029
_cell_length_b       8.00029
_cell_length_c       8.00029
_cell_angle_alpha    60
_cell_angle_beta     60
_cell_angle_gamma    60

_space_group_name_H-M_alt    "P 1"
_space_group_IT_number       1

loop_
  _space_group_symop_operation_xyz
  'x, y, z'

loop_
  _atom_site_type_symbol
  _atom_site_label
  _atom_site_symmetry_multiplicity
  _atom_site_fract_x
  _atom_site_fract_y
  _atom_site_fract_z
  _atom_site_occupancy
  C   C1        1.0  0.12500  0.62500  0.12500  1.0000
  C   C2        1.0  0.62500  0.12500  0.12500  1.0000
  C   C3        1.0  0.12500  0.12500  0.62500  1.0000
  C   C4        1.0  0.12500  0.12500  0.12500  1.0000
  Co  Co1       1.0  0.74500  0.41800  0.41800  1.0000
  Co  Co2       1.0  0.41800  0.74500  0.41800  1.0000
  Co  Co3       1.0  0.41800  0.41800  0.74500  1.0000
  Co  Co4       1.0  0.41800  0.41800  0.41800  1.0000
  Co  Co5       1.0  0.83200  0.50500  0.83200  1.0000
  Co  Co6       1.0  0.50500  0.83200  0.83200  1.0000
  Co  Co7       1.0  0.83200  0.83200  0.50500  1.0000
  Co  Co8       1.0  0.83200  0.83200  0.83200  1.0000
  W   W1        1.0  0.62500  0.12500  0.62500  1.0000
  W   W2        1.0  0.12500  0.62500  0.62500  1.0000
  W   W3        1.0  0.62500  0.62500  0.12500  1.0000
  W   W4        1.0  0.62500  0.62500  0.62500  1.0000
  W   W5        1.0  0.06170  0.06170  0.43800  1.0000
  W   W6        1.0  0.43800  0.06170  0.06170  1.0000
  W   W7        1.0  0.43800  0.06170  0.43800  1.0000
  W   W8        1.0  0.06170  0.43800  0.06170  1.0000
  W   W9        1.0  0.81200  0.81200  0.18800  1.0000
  W   W10       1.0  0.81200  0.18800  0.81200  1.0000
  W   W11       1.0  0.18800  0.18800  0.81200  1.0000
  W   W12       1.0  0.18800  0.81200  0.18800  1.0000
  W   W13       1.0  0.18800  0.81200  0.81200  1.0000
  W   W14       1.0  0.81200  0.18800  0.18800  1.0000
  W   W15       1.0  0.43800  0.43800  0.06170  1.0000
  W   W16       1.0  0.06170  0.43800  0.43800  1.0000
