data_image0
_chemical_formula_structural       Co18Nb6
_chemical_formula_sum              "Co18 Nb6"
_cell_length_a       4.63251
_cell_length_b       4.63147
_cell_length_c       15.1676
_cell_angle_alpha    90.0129
_cell_angle_beta     89.9783
_cell_angle_gamma    120.005

_space_group_name_H-M_alt    "P 1"
_space_group_IT_number       1

loop_
  _space_group_symop_operation_xyz
  'x, y, z'

loop_
  _atom_site_type_symbol
  _atom_site_label
  _atom_site_symmetry_multiplicity
  _atom_site_fract_x
  _atom_site_fract_y
  _atom_site_fract_z
  _atom_site_occupancy
  Co  Co1       1.0  0.99900  0.50000  0.49900  1.0000
  Co  Co2       1.0  0.50100  0.49900  0.49900  1.0000
  Co  Co3       1.0  0.49900  0.50000  0.99900  1.0000
  Co  Co4       1.0  0.00113  0.50000  0.99900  1.0000
  Co  Co5       1.0  0.50100  0.00119  0.49900  1.0000
  Co  Co6       1.0  0.49900  0.99900  0.99900  1.0000
  Co  Co7       1.0  0.33100  0.16500  0.75000  1.0000
  Co  Co8       1.0  0.83500  0.16500  0.75000  1.0000
  Co  Co9       1.0  0.16500  0.83400  0.25000  1.0000
  Co  Co10      1.0  0.66900  0.83500  0.25000  1.0000
  Co  Co11      1.0  0.83500  0.66900  0.75000  1.0000
  Co  Co12      1.0  0.16500  0.33100  0.25000  1.0000
  Co  Co13      1.0  0.66700  0.33300  0.62400  1.0000
  Co  Co14      1.0  0.33300  0.66700  0.12400  1.0000
  Co  Co15      1.0  0.33300  0.66700  0.85000  1.0000
  Co  Co16      1.0  0.33300  0.66700  0.37300  1.0000
  Co  Co17      1.0  0.66700  0.33300  0.87300  1.0000
  Co  Co18      1.0  0.66700  0.33300  0.35000  1.0000
  Nb  Nb1       1.0  0.66700  0.33300  0.17000  1.0000
  Nb  Nb2       1.0  0.00000  0.00008  0.58800  1.0000
  Nb  Nb3       1.0  0.00000  0.00000  0.08800  1.0000
  Nb  Nb4       1.0  0.00008  0.00011  0.39800  1.0000
  Nb  Nb5       1.0  0.00008  0.00016  0.89800  1.0000
  Nb  Nb6       1.0  0.33300  0.66700  0.67000  1.0000
