data_image0
_chemical_formula_structural       C16Cl2H40Li2O8
_chemical_formula_sum              "C16 Cl2 H40 Li2 O8"
_cell_length_a       7.13816
_cell_length_b       7.13816
_cell_length_c       11.3086
_cell_angle_alpha    86.6885
_cell_angle_beta     93.3115
_cell_angle_gamma    118.071

_space_group_name_H-M_alt    "P 1"
_space_group_IT_number       1

loop_
  _space_group_symop_operation_xyz
  'x, y, z'

loop_
  _atom_site_type_symbol
  _atom_site_label
  _atom_site_symmetry_multiplicity
  _atom_site_fract_x
  _atom_site_fract_y
  _atom_site_fract_z
  _atom_site_occupancy
  C   C1        1.0  0.25500  0.77800  0.79000  1.0000
  C   C2        1.0  0.77800  0.25500  0.71000  1.0000
  C   C3        1.0  0.74500  0.22200  0.21000  1.0000
  C   C4        1.0  0.13300  0.30500  0.45300  1.0000
  C   C5        1.0  0.30500  0.13300  0.04670  1.0000
  C   C6        1.0  0.58200  0.77100  0.56000  1.0000
  C   C7        1.0  0.77100  0.58200  0.94000  1.0000
  C   C8        1.0  0.41800  0.22900  0.44000  1.0000
  C   C9        1.0  0.22900  0.41800  0.05980  1.0000
  C   C10       1.0  0.08170  0.74800  0.60200  1.0000
  C   C11       1.0  0.74800  0.08170  0.89800  1.0000
  C   C12       1.0  0.91800  0.25200  0.39800  1.0000
  C   C13       1.0  0.25200  0.91800  0.10200  1.0000
  C   C14       1.0  0.22200  0.74500  0.29000  1.0000
  C   C15       1.0  0.86700  0.69500  0.54700  1.0000
  C   C16       1.0  0.69500  0.86700  0.95300  1.0000
  Cl  Cl1       1.0  0.27300  0.27300  0.75000  1.0000
  Cl  Cl2       1.0  0.72700  0.72700  0.25000  1.0000
  H   H1        1.0  0.55300  0.75400  0.46300  1.0000
  H   H2        1.0  0.29400  0.65000  0.77300  1.0000
  H   H3        1.0  0.65000  0.29400  0.72700  1.0000
  H   H4        1.0  0.70600  0.35000  0.22700  1.0000
  H   H5        1.0  0.35000  0.70600  0.27300  1.0000
  H   H6        1.0  0.48300  0.61800  0.60600  1.0000
  H   H7        1.0  0.61800  0.48300  0.89400  1.0000
  H   H8        1.0  0.51700  0.38200  0.39400  1.0000
  H   H9        1.0  0.38200  0.51700  0.10600  1.0000
  H   H10       1.0  0.20200  0.90700  0.57100  1.0000
  H   H11       1.0  0.90700  0.20200  0.92900  1.0000
  H   H12       1.0  0.79800  0.09350  0.42900  1.0000
  H   H13       1.0  0.09350  0.79800  0.07100  1.0000
  H   H14       1.0  0.13000  0.62800  0.57900  1.0000
  H   H15       1.0  0.62800  0.13000  0.92100  1.0000
  H   H16       1.0  0.87000  0.37200  0.42100  1.0000
  H   H17       1.0  0.37200  0.87000  0.07870  1.0000
  H   H18       1.0  0.86900  0.70500  0.44900  1.0000
  H   H19       1.0  0.70500  0.86900  0.05100  1.0000
  H   H20       1.0  0.13100  0.29500  0.55100  1.0000
  H   H21       1.0  0.29500  0.13100  0.94900  1.0000
  H   H22       1.0  0.45700  0.10900  0.41000  1.0000
  H   H23       1.0  0.10900  0.45700  0.08990  1.0000
  H   H24       1.0  0.75000  0.53300  0.57500  1.0000
  H   H25       1.0  0.53300  0.75000  0.92500  1.0000
  H   H26       1.0  0.25000  0.46700  0.42500  1.0000
  H   H27       1.0  0.46700  0.25000  0.07520  1.0000
  H   H28       1.0  0.38600  0.93400  0.76500  1.0000
  H   H29       1.0  0.93400  0.38600  0.73500  1.0000
  H   H30       1.0  0.61400  0.06630  0.23500  1.0000
  H   H31       1.0  0.06630  0.61400  0.26500  1.0000
  H   H32       1.0  0.22400  0.77500  0.88400  1.0000
  H   H33       1.0  0.77500  0.22400  0.61600  1.0000
  H   H34       1.0  0.77600  0.22500  0.11600  1.0000
  H   H35       1.0  0.22500  0.77600  0.38400  1.0000
  H   H36       1.0  0.54300  0.89100  0.59000  1.0000
  H   H37       1.0  0.89100  0.54300  0.91000  1.0000
  H   H38       1.0  0.75400  0.55300  0.03680  1.0000
  H   H39       1.0  0.44700  0.24600  0.53700  1.0000
  H   H40       1.0  0.24600  0.44700  0.96300  1.0000
  Li  Li1       1.0  0.94900  0.94900  0.75000  1.0000
  Li  Li2       1.0  0.05120  0.05120  0.25000  1.0000
  O   O1        1.0  0.80200  0.84100  0.58800  1.0000
  O   O2        1.0  0.84100  0.80200  0.91200  1.0000
  O   O3        1.0  0.19800  0.15900  0.41200  1.0000
  O   O4        1.0  0.15900  0.19800  0.08830  1.0000
  O   O5        1.0  0.06380  0.74500  0.72700  1.0000
  O   O6        1.0  0.74500  0.06380  0.77300  1.0000
  O   O7        1.0  0.93600  0.25500  0.27300  1.0000
  O   O8        1.0  0.25500  0.93600  0.22700  1.0000
