data_image0
_chemical_formula_structural       Fe14S16
_chemical_formula_sum              "Fe14 S16"
_cell_length_a       6.49754
_cell_length_b       6.49754
_cell_length_c       12.0285
_cell_angle_alpha    63.7469
_cell_angle_beta     116.253
_cell_angle_gamma    118.681

_space_group_name_H-M_alt    "P 1"
_space_group_IT_number       1

loop_
  _space_group_symop_operation_xyz
  'x, y, z'

loop_
  _atom_site_type_symbol
  _atom_site_label
  _atom_site_symmetry_multiplicity
  _atom_site_fract_x
  _atom_site_fract_y
  _atom_site_fract_z
  _atom_site_occupancy
  Fe  Fe1       1.0  0.07380  0.81300  0.47000  1.0000
  Fe  Fe2       1.0  0.81300  0.07380  0.03040  1.0000
  Fe  Fe3       1.0  0.92600  0.18700  0.53000  1.0000
  Fe  Fe4       1.0  0.18700  0.92600  0.97000  1.0000
  Fe  Fe5       1.0  0.21200  0.49800  0.00010  1.0000
  Fe  Fe6       1.0  0.49800  0.21200  0.50000  1.0000
  Fe  Fe7       1.0  0.11000  0.59700  0.73000  1.0000
  Fe  Fe8       1.0  0.59700  0.11000  0.77000  1.0000
  Fe  Fe9       1.0  0.89000  0.40300  0.27000  1.0000
  Fe  Fe10      1.0  0.40300  0.89000  0.23000  1.0000
  Fe  Fe11      1.0  0.55300  0.55300  0.75000  1.0000
  Fe  Fe12      1.0  0.44700  0.44700  0.25000  1.0000
  Fe  Fe13      1.0  0.78800  0.50200  0.00000  1.0000
  Fe  Fe14      1.0  0.50200  0.78800  0.50000  1.0000
  S   S1        1.0  0.49500  0.70600  0.87200  1.0000
  S   S2        1.0  0.70600  0.49500  0.62800  1.0000
  S   S3        1.0  0.78700  0.99100  0.38100  1.0000
  S   S4        1.0  0.99100  0.78700  0.11900  1.0000
  S   S5        1.0  0.21300  0.00913  0.61900  1.0000
  S   S6        1.0  0.00913  0.21300  0.88100  1.0000
  S   S7        1.0  0.19600  0.49800  0.61000  1.0000
  S   S8        1.0  0.49800  0.19600  0.89000  1.0000
  S   S9        1.0  0.80400  0.50200  0.39000  1.0000
  S   S10       1.0  0.50200  0.80400  0.11000  1.0000
  S   S11       1.0  0.70400  0.98000  0.65500  1.0000
  S   S12       1.0  0.98000  0.70400  0.84500  1.0000
  S   S13       1.0  0.29600  0.02030  0.34500  1.0000
  S   S14       1.0  0.02030  0.29600  0.15500  1.0000
  S   S15       1.0  0.50500  0.29400  0.12800  1.0000
  S   S16       1.0  0.29400  0.50500  0.37200  1.0000
