data_image0
_chemical_formula_structural       Li8O56Pb4Ti24
_chemical_formula_sum              "Li8 O56 Pb4 Ti24"
_cell_length_a       9.93744
_cell_length_b       9.93744
_cell_length_c       11.3631
_cell_angle_alpha    90
_cell_angle_beta     90
_cell_angle_gamma    112.72

_space_group_name_H-M_alt    "P 1"
_space_group_IT_number       1

loop_
  _space_group_symop_operation_xyz
  'x, y, z'

loop_
  _atom_site_type_symbol
  _atom_site_label
  _atom_site_symmetry_multiplicity
  _atom_site_fract_x
  _atom_site_fract_y
  _atom_site_fract_z
  _atom_site_occupancy
  Li  Li1       1.0  0.44000  0.07260  0.62400  1.0000
  Li  Li2       1.0  0.06000  0.42700  0.12400  1.0000
  Li  Li3       1.0  0.92700  0.56000  0.37600  1.0000
  Li  Li4       1.0  0.57300  0.94000  0.87600  1.0000
  Li  Li5       1.0  0.56000  0.92700  0.37600  1.0000
  Li  Li6       1.0  0.94000  0.57300  0.87600  1.0000
  Li  Li7       1.0  0.07260  0.44000  0.62400  1.0000
  Li  Li8       1.0  0.42700  0.06000  0.12400  1.0000
  O   O1        1.0  0.36000  0.88500  0.87800  1.0000
  O   O2        1.0  0.14000  0.61500  0.37800  1.0000
  O   O3        1.0  0.11500  0.64000  0.12200  1.0000
  O   O4        1.0  0.38500  0.86000  0.62200  1.0000
  O   O5        1.0  0.64000  0.11500  0.12200  1.0000
  O   O6        1.0  0.86000  0.38500  0.62200  1.0000
  O   O7        1.0  0.88500  0.36000  0.87800  1.0000
  O   O8        1.0  0.61500  0.14000  0.37800  1.0000
  O   O9        1.0  0.13700  0.87200  0.75100  1.0000
  O   O10       1.0  0.36300  0.62800  0.25100  1.0000
  O   O11       1.0  0.12800  0.86300  0.24900  1.0000
  O   O12       1.0  0.37200  0.63700  0.74900  1.0000
  O   O13       1.0  0.86300  0.12800  0.24900  1.0000
  O   O14       1.0  0.63700  0.37200  0.74900  1.0000
  O   O15       1.0  0.87200  0.13700  0.75100  1.0000
  O   O16       1.0  0.62800  0.36300  0.25100  1.0000
  O   O17       1.0  0.61800  0.14800  0.87200  1.0000
  O   O18       1.0  0.88200  0.35200  0.37200  1.0000
  O   O19       1.0  0.38200  0.85200  0.12800  1.0000
  O   O20       1.0  0.11800  0.64800  0.62800  1.0000
  O   O21       1.0  0.14800  0.61800  0.87200  1.0000
  O   O22       1.0  0.35200  0.88200  0.37200  1.0000
  O   O23       1.0  0.62900  0.37100  0.00000  1.0000
  O   O24       1.0  0.87100  0.12900  0.50000  1.0000
  O   O25       1.0  0.37100  0.62900  0.00000  1.0000
  O   O26       1.0  0.12900  0.87100  0.50000  1.0000
  O   O27       1.0  0.63500  0.36500  0.50000  1.0000
  O   O28       1.0  0.86500  0.13500  0.00000  1.0000
  O   O29       1.0  0.36500  0.63500  0.50000  1.0000
  O   O30       1.0  0.13500  0.86500  0.00000  1.0000
  O   O31       1.0  0.35500  0.14000  0.76000  1.0000
  O   O32       1.0  0.14500  0.36000  0.26000  1.0000
  O   O33       1.0  0.86000  0.64500  0.24000  1.0000
  O   O34       1.0  0.64000  0.85500  0.74000  1.0000
  O   O35       1.0  0.64500  0.86000  0.24000  1.0000
  O   O36       1.0  0.85500  0.64000  0.74000  1.0000
  O   O37       1.0  0.14000  0.35500  0.76000  1.0000
  O   O38       1.0  0.36000  0.14500  0.26000  1.0000
  O   O39       1.0  0.42100  0.42100  0.87800  1.0000
  O   O40       1.0  0.07950  0.07950  0.37800  1.0000
  O   O41       1.0  0.36000  0.14600  0.98900  1.0000
  O   O42       1.0  0.14000  0.35400  0.48900  1.0000
  O   O43       1.0  0.85400  0.64000  0.01130  1.0000
  O   O44       1.0  0.64600  0.86000  0.51100  1.0000
  O   O45       1.0  0.64000  0.85400  0.01130  1.0000
  O   O46       1.0  0.86000  0.64600  0.51100  1.0000
  O   O47       1.0  0.14600  0.36000  0.98900  1.0000
  O   O48       1.0  0.35400  0.14000  0.48900  1.0000
  O   O49       1.0  0.91700  0.91700  0.12900  1.0000
  O   O50       1.0  0.58300  0.58300  0.62900  1.0000
  O   O51       1.0  0.08250  0.08250  0.87100  1.0000
  O   O52       1.0  0.41700  0.41700  0.37100  1.0000
  O   O53       1.0  0.57900  0.57900  0.12200  1.0000
  O   O54       1.0  0.92100  0.92100  0.62200  1.0000
  O   O55       1.0  0.85200  0.38200  0.12800  1.0000
  O   O56       1.0  0.64800  0.11800  0.62800  1.0000
  Pb  Pb1       1.0  0.15700  0.15700  0.62100  1.0000
  Pb  Pb2       1.0  0.34300  0.34300  0.12100  1.0000
  Pb  Pb3       1.0  0.84300  0.84300  0.37900  1.0000
  Pb  Pb4       1.0  0.65700  0.65700  0.87900  1.0000
  Ti  Ti1       1.0  0.48800  0.26900  0.86500  1.0000
  Ti  Ti2       1.0  0.76900  0.98800  0.63500  1.0000
  Ti  Ti3       1.0  0.51200  0.73100  0.13500  1.0000
  Ti  Ti4       1.0  0.98800  0.76900  0.63500  1.0000
  Ti  Ti5       1.0  0.26900  0.48800  0.86500  1.0000
  Ti  Ti6       1.0  0.23100  0.01160  0.36500  1.0000
  Ti  Ti7       1.0  0.24400  0.75600  0.50000  1.0000
  Ti  Ti8       1.0  0.25600  0.74400  0.00000  1.0000
  Ti  Ti9       1.0  0.75600  0.24400  0.50000  1.0000
  Ti  Ti10      1.0  0.74400  0.25600  0.00000  1.0000
  Ti  Ti11      1.0  0.24100  0.74100  0.25000  1.0000
  Ti  Ti12      1.0  0.25900  0.75900  0.75000  1.0000
  Ti  Ti13      1.0  0.75900  0.25900  0.75000  1.0000
  Ti  Ti14      1.0  0.74100  0.24100  0.25000  1.0000
  Ti  Ti15      1.0  0.22600  0.01100  0.88300  1.0000
  Ti  Ti16      1.0  0.27400  0.48900  0.38300  1.0000
  Ti  Ti17      1.0  0.98900  0.77400  0.11700  1.0000
  Ti  Ti18      1.0  0.51100  0.72600  0.61700  1.0000
  Ti  Ti19      1.0  0.77400  0.98900  0.11700  1.0000
  Ti  Ti20      1.0  0.72600  0.51100  0.61700  1.0000
  Ti  Ti21      1.0  0.01100  0.22600  0.88300  1.0000
  Ti  Ti22      1.0  0.48900  0.27400  0.38300  1.0000
  Ti  Ti23      1.0  0.01160  0.23100  0.36500  1.0000
  Ti  Ti24      1.0  0.73100  0.51200  0.13500  1.0000
