data_image0
_chemical_formula_structural       Ba4Li8O56Ti24
_chemical_formula_sum              "Ba4 Li8 O56 Ti24"
_cell_length_a       9.96779
_cell_length_b       9.96779
_cell_length_c       11.4426
_cell_angle_alpha    90
_cell_angle_beta     90
_cell_angle_gamma    112.138

_space_group_name_H-M_alt    "P 1"
_space_group_IT_number       1

loop_
  _space_group_symop_operation_xyz
  'x, y, z'

loop_
  _atom_site_type_symbol
  _atom_site_label
  _atom_site_symmetry_multiplicity
  _atom_site_fract_x
  _atom_site_fract_y
  _atom_site_fract_z
  _atom_site_occupancy
  Ba  Ba1       1.0  0.85200  0.85200  0.37700  1.0000
  Ba  Ba2       1.0  0.64800  0.64800  0.87700  1.0000
  Ba  Ba3       1.0  0.14800  0.14800  0.62300  1.0000
  Ba  Ba4       1.0  0.35200  0.35200  0.12300  1.0000
  Li  Li1       1.0  0.44300  0.06970  0.62300  1.0000
  Li  Li2       1.0  0.05730  0.43000  0.12300  1.0000
  Li  Li3       1.0  0.93000  0.55700  0.37700  1.0000
  Li  Li4       1.0  0.57000  0.94300  0.87700  1.0000
  Li  Li5       1.0  0.55700  0.93000  0.37700  1.0000
  Li  Li6       1.0  0.94300  0.57000  0.87700  1.0000
  Li  Li7       1.0  0.06970  0.44300  0.62300  1.0000
  Li  Li8       1.0  0.43000  0.05730  0.12300  1.0000
  O   O1        1.0  0.35900  0.88100  0.87800  1.0000
  O   O2        1.0  0.14100  0.61900  0.37800  1.0000
  O   O3        1.0  0.11900  0.64100  0.12200  1.0000
  O   O4        1.0  0.38100  0.85900  0.62200  1.0000
  O   O5        1.0  0.88100  0.35900  0.87800  1.0000
  O   O6        1.0  0.61900  0.14100  0.37800  1.0000
  O   O7        1.0  0.13500  0.87200  0.75000  1.0000
  O   O8        1.0  0.36500  0.62800  0.25000  1.0000
  O   O9        1.0  0.12800  0.86500  0.25000  1.0000
  O   O10       1.0  0.37200  0.63500  0.75000  1.0000
  O   O11       1.0  0.86500  0.12800  0.25000  1.0000
  O   O12       1.0  0.63500  0.37200  0.75000  1.0000
  O   O13       1.0  0.87200  0.13500  0.75000  1.0000
  O   O14       1.0  0.62800  0.36500  0.25000  1.0000
  O   O15       1.0  0.62100  0.14900  0.87200  1.0000
  O   O16       1.0  0.87900  0.35100  0.37200  1.0000
  O   O17       1.0  0.85100  0.37900  0.12800  1.0000
  O   O18       1.0  0.64900  0.12100  0.62800  1.0000
  O   O19       1.0  0.37900  0.85100  0.12800  1.0000
  O   O20       1.0  0.12100  0.64900  0.62800  1.0000
  O   O21       1.0  0.37200  0.62800  0.00000  1.0000
  O   O22       1.0  0.12800  0.87200  0.50000  1.0000
  O   O23       1.0  0.63500  0.36500  0.50000  1.0000
  O   O24       1.0  0.86500  0.13500  0.00000  1.0000
  O   O25       1.0  0.36500  0.63500  0.50000  1.0000
  O   O26       1.0  0.13500  0.86500  0.00000  1.0000
  O   O27       1.0  0.35900  0.13200  0.76000  1.0000
  O   O28       1.0  0.14100  0.36800  0.26000  1.0000
  O   O29       1.0  0.86800  0.64100  0.24000  1.0000
  O   O30       1.0  0.63200  0.85900  0.74000  1.0000
  O   O31       1.0  0.64100  0.86800  0.24000  1.0000
  O   O32       1.0  0.85900  0.63200  0.74000  1.0000
  O   O33       1.0  0.13200  0.35900  0.76000  1.0000
  O   O34       1.0  0.36800  0.14100  0.26000  1.0000
  O   O35       1.0  0.59400  0.59400  0.12400  1.0000
  O   O36       1.0  0.90600  0.90600  0.62400  1.0000
  O   O37       1.0  0.40600  0.40600  0.87600  1.0000
  O   O38       1.0  0.09350  0.09350  0.37600  1.0000
  O   O39       1.0  0.36400  0.13900  0.98600  1.0000
  O   O40       1.0  0.63900  0.86400  0.51400  1.0000
  O   O41       1.0  0.63600  0.86100  0.01400  1.0000
  O   O42       1.0  0.86400  0.63900  0.51400  1.0000
  O   O43       1.0  0.13900  0.36400  0.98600  1.0000
  O   O44       1.0  0.36100  0.13600  0.48600  1.0000
  O   O45       1.0  0.91000  0.91000  0.13000  1.0000
  O   O46       1.0  0.59000  0.59000  0.63000  1.0000
  O   O47       1.0  0.09020  0.09020  0.87000  1.0000
  O   O48       1.0  0.41000  0.41000  0.37000  1.0000
  O   O49       1.0  0.13600  0.36100  0.48600  1.0000
  O   O50       1.0  0.86100  0.63600  0.01400  1.0000
  O   O51       1.0  0.14900  0.62100  0.87200  1.0000
  O   O52       1.0  0.35100  0.87900  0.37200  1.0000
  O   O53       1.0  0.62800  0.37200  0.00000  1.0000
  O   O54       1.0  0.87200  0.12800  0.50000  1.0000
  O   O55       1.0  0.64100  0.11900  0.12200  1.0000
  O   O56       1.0  0.85900  0.38100  0.62200  1.0000
  Ti  Ti1       1.0  0.48600  0.26300  0.86300  1.0000
  Ti  Ti2       1.0  0.01440  0.23700  0.36300  1.0000
  Ti  Ti3       1.0  0.73700  0.51400  0.13700  1.0000
  Ti  Ti4       1.0  0.76300  0.98600  0.63700  1.0000
  Ti  Ti5       1.0  0.51400  0.73700  0.13700  1.0000
  Ti  Ti6       1.0  0.25800  0.74200  0.00000  1.0000
  Ti  Ti7       1.0  0.75800  0.24200  0.50000  1.0000
  Ti  Ti8       1.0  0.74200  0.25800  0.00000  1.0000
  Ti  Ti9       1.0  0.24200  0.74200  0.25000  1.0000
  Ti  Ti10      1.0  0.25800  0.75800  0.75000  1.0000
  Ti  Ti11      1.0  0.75800  0.25800  0.75000  1.0000
  Ti  Ti12      1.0  0.74200  0.24200  0.25000  1.0000
  Ti  Ti13      1.0  0.22700  0.00865  0.88400  1.0000
  Ti  Ti14      1.0  0.27300  0.49100  0.38400  1.0000
  Ti  Ti15      1.0  0.99100  0.77300  0.11600  1.0000
  Ti  Ti16      1.0  0.50900  0.72700  0.61600  1.0000
  Ti  Ti17      1.0  0.77300  0.99100  0.11600  1.0000
  Ti  Ti18      1.0  0.72700  0.50900  0.61600  1.0000
  Ti  Ti19      1.0  0.00865  0.22700  0.88400  1.0000
  Ti  Ti20      1.0  0.49100  0.27300  0.38400  1.0000
  Ti  Ti21      1.0  0.98600  0.76300  0.63700  1.0000
  Ti  Ti22      1.0  0.26300  0.48600  0.86300  1.0000
  Ti  Ti23      1.0  0.23700  0.01440  0.36300  1.0000
  Ti  Ti24      1.0  0.24200  0.75800  0.50000  1.0000
