data_image0
_chemical_formula_structural       Co4Tb2
_chemical_formula_sum              "Co4 Tb2"
_cell_length_a       4.96823
_cell_length_b       4.96823
_cell_length_c       4.96823
_cell_angle_alpha    59.9939
_cell_angle_beta     59.9939
_cell_angle_gamma    59.9939

_space_group_name_H-M_alt    "P 1"
_space_group_IT_number       1

loop_
  _space_group_symop_operation_xyz
  'x, y, z'

loop_
  _atom_site_type_symbol
  _atom_site_label
  _atom_site_symmetry_multiplicity
  _atom_site_fract_x
  _atom_site_fract_y
  _atom_site_fract_z
  _atom_site_occupancy
  Co  Co1       1.0  0.50000  1.00000  0.50000  1.0000
  Co  Co2       1.0  1.00000  0.50000  0.50000  1.0000
  Co  Co3       1.0  0.50000  0.50000  1.00000  1.0000
  Co  Co4       1.0  0.50000  0.50000  0.50000  1.0000
  Tb  Tb1       1.0  0.87500  0.87500  0.87500  1.0000
  Tb  Tb2       1.0  0.12500  0.12500  0.12500  1.0000
