data_image0
_chemical_formula_structural       Li4Nd4Si6
_chemical_formula_sum              "Li4 Nd4 Si6"
_cell_length_a       9.47504
_cell_length_b       9.47504
_cell_length_c       6.78216
_cell_angle_alpha    90
_cell_angle_beta     90
_cell_angle_gamma    26.7967

_space_group_name_H-M_alt    "P 1"
_space_group_IT_number       1

loop_
  _space_group_symop_operation_xyz
  'x, y, z'

loop_
  _atom_site_type_symbol
  _atom_site_label
  _atom_site_symmetry_multiplicity
  _atom_site_fract_x
  _atom_site_fract_y
  _atom_site_fract_z
  _atom_site_occupancy
  Li  Li1       1.0  0.18800  0.18800  0.93800  1.0000
  Li  Li2       1.0  0.81200  0.81200  0.43800  1.0000
  Li  Li3       1.0  0.81200  0.81200  0.06150  1.0000
  Li  Li4       1.0  0.18800  0.18800  0.56200  1.0000
  Nd  Nd1       1.0  0.34200  0.34200  0.75000  1.0000
  Nd  Nd2       1.0  0.65800  0.65800  0.25000  1.0000
  Nd  Nd3       1.0  0.55200  0.55200  0.75000  1.0000
  Nd  Nd4       1.0  0.44800  0.44800  0.25000  1.0000
  Si  Si1       1.0  0.05830  0.05830  0.42600  1.0000
  Si  Si2       1.0  0.94200  0.94200  0.92600  1.0000
  Si  Si3       1.0  0.94200  0.94200  0.57400  1.0000
  Si  Si4       1.0  0.05830  0.05830  0.07410  1.0000
  Si  Si5       1.0  0.72000  0.72000  0.75000  1.0000
  Si  Si6       1.0  0.28000  0.28000  0.25000  1.0000
