data_image0
_chemical_formula_structural       Al12O24Sr6
_chemical_formula_sum              "Al12 O24 Sr6"
_cell_length_a       8.82062
_cell_length_b       8.81967
_cell_length_c       8.15707
_cell_angle_alpha    90
_cell_angle_beta     90
_cell_angle_gamma    120.041

_space_group_name_H-M_alt    "P 1"
_space_group_IT_number       1

loop_
  _space_group_symop_operation_xyz
  'x, y, z'

loop_
  _atom_site_type_symbol
  _atom_site_label
  _atom_site_symmetry_multiplicity
  _atom_site_fract_x
  _atom_site_fract_y
  _atom_site_fract_z
  _atom_site_occupancy
  Al  Al1       1.0  0.34300  0.02110  0.20200  1.0000
  Al  Al2       1.0  0.97900  0.32200  0.20200  1.0000
  Al  Al3       1.0  0.02090  0.67800  0.70200  1.0000
  Al  Al4       1.0  0.65700  0.97900  0.70200  1.0000
  Al  Al5       1.0  0.67800  0.65700  0.20200  1.0000
  Al  Al6       1.0  0.32200  0.34300  0.70200  1.0000
  Al  Al7       1.0  0.33200  0.02260  0.80700  1.0000
  Al  Al8       1.0  0.97800  0.31000  0.80600  1.0000
  Al  Al9       1.0  0.02220  0.69000  0.30600  1.0000
  Al  Al10      1.0  0.66800  0.97700  0.30700  1.0000
  Al  Al11      1.0  0.69000  0.66800  0.80700  1.0000
  Al  Al12      1.0  0.31000  0.33200  0.30700  1.0000
  O   O1        1.0  0.36700  0.10900  0.00488  1.0000
  O   O2        1.0  0.89100  0.25800  0.00464  1.0000
  O   O3        1.0  0.10900  0.74200  0.50500  1.0000
  O   O4        1.0  0.63300  0.89100  0.50500  1.0000
  O   O5        1.0  0.74200  0.63300  0.00496  1.0000
  O   O6        1.0  0.25800  0.36700  0.50500  1.0000
  O   O7        1.0  0.10500  0.88000  0.80000  1.0000
  O   O8        1.0  0.12000  0.22600  0.80000  1.0000
  O   O9        1.0  0.88000  0.77400  0.30000  1.0000
  O   O10       1.0  0.89500  0.12000  0.30000  1.0000
  O   O11       1.0  0.77400  0.89500  0.80000  1.0000
  O   O12       1.0  0.22600  0.10500  0.30000  1.0000
  O   O13       1.0  0.09450  0.53800  0.77300  1.0000
  O   O14       1.0  0.46200  0.55700  0.77400  1.0000
  O   O15       1.0  0.53800  0.44300  0.27400  1.0000
  O   O16       1.0  0.90600  0.46200  0.27300  1.0000
  O   O17       1.0  0.44400  0.90600  0.77300  1.0000
  O   O18       1.0  0.55600  0.09420  0.27300  1.0000
  O   O19       1.0  0.58200  0.79000  0.18300  1.0000
  O   O20       1.0  0.20700  0.41800  0.18300  1.0000
  O   O21       1.0  0.79000  0.20700  0.68300  1.0000
  O   O22       1.0  0.21000  0.79300  0.18300  1.0000
  O   O23       1.0  0.79300  0.58200  0.68300  1.0000
  O   O24       1.0  0.41800  0.21000  0.68300  1.0000
  Sr  Sr1       1.0  0.66700  0.33300  0.01650  1.0000
  Sr  Sr2       1.0  0.33300  0.66700  0.51600  1.0000
  Sr  Sr3       1.0  0.66700  0.33300  0.49100  1.0000
  Sr  Sr4       1.0  0.33300  0.66700  0.99100  1.0000
  Sr  Sr5       1.0  0.00001  0.00000  0.52800  1.0000
  Sr  Sr6       1.0  0.00000  0.00002  0.02850  1.0000
