data_image0
_chemical_formula_structural       Nb4O18Sm4Sr2
_chemical_formula_sum              "Nb4 O18 Sm4 Sr2"
_cell_length_a       5.69314
_cell_length_b       12.8847
_cell_length_c       12.8847
_cell_angle_alpha    22.0127
_cell_angle_beta     90
_cell_angle_gamma    90

_space_group_name_H-M_alt    "P 1"
_space_group_IT_number       1

loop_
  _space_group_symop_operation_xyz
  'x, y, z'

loop_
  _atom_site_type_symbol
  _atom_site_label
  _atom_site_symmetry_multiplicity
  _atom_site_fract_x
  _atom_site_fract_y
  _atom_site_fract_z
  _atom_site_occupancy
  Nb  Nb1       1.0  0.22400  0.04990  0.08780  1.0000
  Nb  Nb2       1.0  0.72400  0.95000  0.91200  1.0000
  Nb  Nb3       1.0  0.72400  0.08780  0.04990  1.0000
  Nb  Nb4       1.0  0.22400  0.91200  0.95000  1.0000
  O   O1        1.0  0.46800  0.99700  0.00337  1.0000
  O   O2        1.0  0.96800  0.00337  0.99700  1.0000
  O   O3        1.0  0.48600  0.07630  0.18000  1.0000
  O   O4        1.0  0.98600  0.92400  0.82000  1.0000
  O   O5        1.0  0.98600  0.18000  0.07630  1.0000
  O   O6        1.0  0.48600  0.82000  0.92400  1.0000
  O   O7        1.0  0.88600  0.80500  0.67000  1.0000
  O   O8        1.0  0.38600  0.19500  0.33000  1.0000
  O   O9        1.0  0.38600  0.67000  0.80500  1.0000
  O   O10       1.0  0.88600  0.33000  0.19500  1.0000
  O   O11       1.0  0.29200  0.48500  0.89400  1.0000
  O   O12       1.0  0.79200  0.51500  0.10600  1.0000
  O   O13       1.0  0.71000  0.33200  0.51600  1.0000
  O   O14       1.0  0.21000  0.66800  0.48400  1.0000
  O   O15       1.0  0.21000  0.51600  0.33200  1.0000
  O   O16       1.0  0.71000  0.48400  0.66800  1.0000
  O   O17       1.0  0.79200  0.89400  0.48500  1.0000
  O   O18       1.0  0.29200  0.10600  0.51500  1.0000
  Sm  Sm1       1.0  0.20100  0.57600  0.05270  1.0000
  Sm  Sm2       1.0  0.70100  0.42400  0.94700  1.0000
  Sm  Sm3       1.0  0.70100  0.05270  0.57600  1.0000
  Sm  Sm4       1.0  0.20100  0.94700  0.42400  1.0000
  Sr  Sr1       1.0  0.96300  0.50300  0.49700  1.0000
  Sr  Sr2       1.0  0.46300  0.49700  0.50300  1.0000
