data_image0
_chemical_formula_structural       Al8H48Na24
_chemical_formula_sum              "Al8 H48 Na24"
_cell_length_a       5.09674
_cell_length_b       8.48205
_cell_length_c       16.6682
_cell_angle_alpha    90
_cell_angle_beta     90
_cell_angle_gamma    90

_space_group_name_H-M_alt    "P 1"
_space_group_IT_number       1

loop_
  _space_group_symop_operation_xyz
  'x, y, z'

loop_
  _atom_site_type_symbol
  _atom_site_label
  _atom_site_symmetry_multiplicity
  _atom_site_fract_x
  _atom_site_fract_y
  _atom_site_fract_z
  _atom_site_occupancy
  Al  Al1       1.0  0.73900  0.57800  0.75000  1.0000
  Al  Al2       1.0  0.26100  0.42200  0.25000  1.0000
  Al  Al3       1.0  0.73900  0.92200  0.25000  1.0000
  Al  Al4       1.0  0.26100  0.07840  0.75000  1.0000
  Al  Al5       1.0  0.21400  0.75000  0.00000  1.0000
  Al  Al6       1.0  0.78600  0.25000  0.50000  1.0000
  Al  Al7       1.0  0.78600  0.25000  0.00000  1.0000
  Al  Al8       1.0  0.21400  0.75000  0.50000  1.0000
  H   H1        1.0  0.55000  0.33300  0.56100  1.0000
  H   H2        1.0  0.45000  0.66700  0.06090  1.0000
  H   H3        1.0  0.45000  0.83300  0.93900  1.0000
  H   H4        1.0  0.55000  0.16700  0.43900  1.0000
  H   H5        1.0  0.55000  0.33300  0.93900  1.0000
  H   H6        1.0  0.45000  0.66700  0.43900  1.0000
  H   H7        1.0  0.55000  0.16700  0.06090  1.0000
  H   H8        1.0  0.45000  0.83300  0.56100  1.0000
  H   H9        1.0  0.96600  0.67900  0.06100  1.0000
  H   H10       1.0  0.03430  0.32100  0.56100  1.0000
  H   H11       1.0  0.96600  0.82100  0.93900  1.0000
  H   H12       1.0  0.03430  0.17900  0.43900  1.0000
  H   H13       1.0  0.03430  0.32100  0.93900  1.0000
  H   H14       1.0  0.96600  0.67900  0.43900  1.0000
  H   H15       1.0  0.03430  0.17900  0.06100  1.0000
  H   H16       1.0  0.96600  0.82100  0.56100  1.0000
  H   H17       1.0  0.22100  0.91800  0.05500  1.0000
  H   H18       1.0  0.77900  0.08190  0.55500  1.0000
  H   H19       1.0  0.77900  0.41800  0.05500  1.0000
  H   H20       1.0  0.22100  0.58200  0.55500  1.0000
  H   H21       1.0  0.77900  0.08190  0.94500  1.0000
  H   H22       1.0  0.22100  0.91800  0.44500  1.0000
  H   H23       1.0  0.04960  0.47700  0.17500  1.0000
  H   H24       1.0  0.95000  0.52300  0.67500  1.0000
  H   H25       1.0  0.04960  0.02330  0.82500  1.0000
  H   H26       1.0  0.95000  0.97700  0.32500  1.0000
  H   H27       1.0  0.95000  0.52300  0.82500  1.0000
  H   H28       1.0  0.04960  0.47700  0.32500  1.0000
  H   H29       1.0  0.95000  0.97700  0.17500  1.0000
  H   H30       1.0  0.04960  0.02330  0.67500  1.0000
  H   H31       1.0  0.86800  0.76700  0.75000  1.0000
  H   H32       1.0  0.13200  0.23300  0.25000  1.0000
  H   H33       1.0  0.86800  0.73300  0.25000  1.0000
  H   H34       1.0  0.13200  0.26700  0.75000  1.0000
  H   H35       1.0  0.46900  0.36700  0.17400  1.0000
  H   H36       1.0  0.53100  0.63300  0.67400  1.0000
  H   H37       1.0  0.46900  0.36700  0.32600  1.0000
  H   H38       1.0  0.53100  0.86700  0.17400  1.0000
  H   H39       1.0  0.46900  0.13300  0.67400  1.0000
  H   H40       1.0  0.60300  0.39300  0.75000  1.0000
  H   H41       1.0  0.39700  0.60700  0.25000  1.0000
  H   H42       1.0  0.60300  0.10700  0.25000  1.0000
  H   H43       1.0  0.39700  0.89300  0.75000  1.0000
  H   H44       1.0  0.46900  0.13300  0.82600  1.0000
  H   H45       1.0  0.53100  0.86700  0.32600  1.0000
  H   H46       1.0  0.53100  0.63300  0.82600  1.0000
  H   H47       1.0  0.22100  0.58200  0.94500  1.0000
  H   H48       1.0  0.77900  0.41800  0.44500  1.0000
  Na  Na1       1.0  0.69300  0.59000  0.15300  1.0000
  Na  Na2       1.0  0.30700  0.41000  0.65300  1.0000
  Na  Na3       1.0  0.69300  0.91000  0.84700  1.0000
  Na  Na4       1.0  0.30700  0.09040  0.34700  1.0000
  Na  Na5       1.0  0.30700  0.41000  0.84700  1.0000
  Na  Na6       1.0  0.69300  0.59000  0.34700  1.0000
  Na  Na7       1.0  0.30700  0.09040  0.15300  1.0000
  Na  Na8       1.0  0.69300  0.91000  0.65300  1.0000
  Na  Na9       1.0  0.73400  0.58500  0.55200  1.0000
  Na  Na10      1.0  0.26600  0.41500  0.05170  1.0000
  Na  Na11      1.0  0.73400  0.91500  0.44800  1.0000
  Na  Na12      1.0  0.26600  0.08460  0.94800  1.0000
  Na  Na13      1.0  0.26600  0.41500  0.44800  1.0000
  Na  Na14      1.0  0.73400  0.58500  0.94800  1.0000
  Na  Na15      1.0  0.26600  0.08460  0.55200  1.0000
  Na  Na16      1.0  0.73400  0.91500  0.05170  1.0000
  Na  Na17      1.0  0.18200  0.74900  0.16500  1.0000
  Na  Na18      1.0  0.18200  0.75100  0.66500  1.0000
  Na  Na19      1.0  0.81800  0.25100  0.83500  1.0000
  Na  Na20      1.0  0.81800  0.24900  0.16500  1.0000
  Na  Na21      1.0  0.18200  0.74900  0.33500  1.0000
  Na  Na22      1.0  0.81800  0.24900  0.33500  1.0000
  Na  Na23      1.0  0.18200  0.75100  0.83500  1.0000
  Na  Na24      1.0  0.81800  0.25100  0.66500  1.0000
