data_image0
_chemical_formula_structural       Bi4Co2Mn2O12
_chemical_formula_sum              "Bi4 Co2 Mn2 O12"
_cell_length_a       5.34864
_cell_length_b       5.34864
_cell_length_c       9.42663
_cell_angle_alpha    75.2074
_cell_angle_beta     104.793
_cell_angle_gamma    119.221

_space_group_name_H-M_alt    "P 1"
_space_group_IT_number       1

loop_
  _space_group_symop_operation_xyz
  'x, y, z'

loop_
  _atom_site_type_symbol
  _atom_site_label
  _atom_site_symmetry_multiplicity
  _atom_site_fract_x
  _atom_site_fract_y
  _atom_site_fract_z
  _atom_site_occupancy
  Bi  Bi1       1.0  0.87100  0.13500  0.62000  1.0000
  Bi  Bi2       1.0  0.13500  0.87100  0.38000  1.0000
  Bi  Bi3       1.0  0.64600  0.38200  0.88000  1.0000
  Bi  Bi4       1.0  0.38200  0.64600  0.12000  1.0000
  Co  Co1       1.0  0.53300  0.53300  0.50000  1.0000
  Co  Co2       1.0  0.98000  0.98000  0.00000  1.0000
  Mn  Mn1       1.0  0.75700  0.25700  0.25000  1.0000
  Mn  Mn2       1.0  0.25700  0.75700  0.75000  1.0000
  O   O1        1.0  0.86900  0.04180  0.16300  1.0000
  O   O2        1.0  0.04180  0.86900  0.83700  1.0000
  O   O3        1.0  0.64000  0.47100  0.33600  1.0000
  O   O4        1.0  0.47100  0.64000  0.66400  1.0000
  O   O5        1.0  0.93300  0.63700  0.59200  1.0000
  O   O6        1.0  0.63700  0.93300  0.40800  1.0000
  O   O7        1.0  0.87400  0.58000  0.09220  1.0000
  O   O8        1.0  0.58000  0.87400  0.90800  1.0000
  O   O9        1.0  0.06620  0.35700  0.89200  1.0000
  O   O10       1.0  0.35700  0.06620  0.10800  1.0000
  O   O11       1.0  0.15500  0.44600  0.39400  1.0000
  O   O12       1.0  0.44600  0.15500  0.60600  1.0000
