data_image0
_chemical_formula_structural       Ge12Tb8Zn10
_chemical_formula_sum              "Ge12 Tb8 Zn10"
_cell_length_a       9.39709
_cell_length_b       9.39709
_cell_length_c       15.6212
_cell_angle_alpha    90
_cell_angle_beta     90
_cell_angle_gamma    26.129

_space_group_name_H-M_alt    "P 1"
_space_group_IT_number       1

loop_
  _space_group_symop_operation_xyz
  'x, y, z'

loop_
  _atom_site_type_symbol
  _atom_site_label
  _atom_site_symmetry_multiplicity
  _atom_site_fract_x
  _atom_site_fract_y
  _atom_site_fract_z
  _atom_site_occupancy
  Ge  Ge1       1.0  0.28900  0.28900  0.45700  1.0000
  Ge  Ge2       1.0  0.71100  0.71100  0.95700  1.0000
  Ge  Ge3       1.0  0.72200  0.72200  0.67900  1.0000
  Ge  Ge4       1.0  0.27800  0.27800  0.17900  1.0000
  Ge  Ge5       1.0  0.05780  0.05780  0.81300  1.0000
  Ge  Ge6       1.0  0.94200  0.94200  0.31300  1.0000
  Ge  Ge7       1.0  0.92500  0.92500  0.57000  1.0000
  Ge  Ge8       1.0  0.61500  0.61500  0.31400  1.0000
  Ge  Ge9       1.0  0.93500  0.93500  0.05040  1.0000
  Ge  Ge10      1.0  0.06470  0.06470  0.55000  1.0000
  Ge  Ge11      1.0  0.07520  0.07520  0.07020  1.0000
  Ge  Ge12      1.0  0.38500  0.38500  0.81400  1.0000
  Tb  Tb1       1.0  0.53300  0.53300  0.94900  1.0000
  Tb  Tb2       1.0  0.46700  0.46700  0.44900  1.0000
  Tb  Tb3       1.0  0.32500  0.32500  0.63500  1.0000
  Tb  Tb4       1.0  0.67500  0.67500  0.13500  1.0000
  Tb  Tb5       1.0  0.53000  0.53000  0.67900  1.0000
  Tb  Tb6       1.0  0.47000  0.47000  0.17900  1.0000
  Tb  Tb7       1.0  0.32100  0.32100  0.99300  1.0000
  Tb  Tb8       1.0  0.67900  0.67900  0.49300  1.0000
  Zn  Zn1       1.0  0.64600  0.64600  0.81700  1.0000
  Zn  Zn2       1.0  0.35400  0.35400  0.31700  1.0000
  Zn  Zn3       1.0  0.92700  0.92700  0.73000  1.0000
  Zn  Zn4       1.0  0.07330  0.07330  0.23000  1.0000
  Zn  Zn5       1.0  0.92500  0.92500  0.89500  1.0000
  Zn  Zn6       1.0  0.07540  0.07540  0.39500  1.0000
  Zn  Zn7       1.0  0.79000  0.79000  0.82400  1.0000
  Zn  Zn8       1.0  0.21000  0.21000  0.32400  1.0000
  Zn  Zn9       1.0  0.15400  0.15400  0.67500  1.0000
  Zn  Zn10      1.0  0.84600  0.84600  0.17500  1.0000
