data_image0
_chemical_formula_structural       Ca19In8N7
_chemical_formula_sum              "Ca19 In8 N7"
_cell_length_a       10.4067
_cell_length_b       10.4067
_cell_length_c       10.4067
_cell_angle_alpha    60
_cell_angle_beta     60
_cell_angle_gamma    60

_space_group_name_H-M_alt    "P 1"
_space_group_IT_number       1

loop_
  _space_group_symop_operation_xyz
  'x, y, z'

loop_
  _atom_site_type_symbol
  _atom_site_label
  _atom_site_symmetry_multiplicity
  _atom_site_fract_x
  _atom_site_fract_y
  _atom_site_fract_z
  _atom_site_occupancy
  Ca  Ca1       1.0  0.50000  0.50000  0.50000  1.0000
  Ca  Ca2       1.0  0.16600  0.16600  0.83400  1.0000
  Ca  Ca3       1.0  0.16600  0.83400  0.16600  1.0000
  Ca  Ca4       1.0  0.83400  0.83400  0.16600  1.0000
  Ca  Ca5       1.0  0.83400  0.16600  0.83400  1.0000
  Ca  Ca6       1.0  0.83400  0.16600  0.16600  1.0000
  Ca  Ca7       1.0  0.50000  0.82700  0.50000  1.0000
  Ca  Ca8       1.0  0.50000  0.50000  0.82700  1.0000
  Ca  Ca9       1.0  0.82700  0.50000  0.17300  1.0000
  Ca  Ca10      1.0  0.17300  0.82700  0.50000  1.0000
  Ca  Ca11      1.0  0.17300  0.50000  0.82700  1.0000
  Ca  Ca12      1.0  0.50000  0.50000  0.17300  1.0000
  Ca  Ca13      1.0  0.50000  0.17300  0.50000  1.0000
  Ca  Ca14      1.0  0.50000  0.82700  0.17300  1.0000
  Ca  Ca15      1.0  0.82700  0.50000  0.50000  1.0000
  Ca  Ca16      1.0  0.50000  0.17300  0.82700  1.0000
  Ca  Ca17      1.0  0.17300  0.50000  0.50000  1.0000
  Ca  Ca18      1.0  0.16600  0.83400  0.83400  1.0000
  Ca  Ca19      1.0  0.82700  0.17300  0.50000  1.0000
  In  In1       1.0  0.52600  0.82500  0.82500  1.0000
  In  In2       1.0  0.82500  0.52600  0.82500  1.0000
  In  In3       1.0  0.82500  0.82500  0.52600  1.0000
  In  In4       1.0  0.82500  0.82500  0.82500  1.0000
  In  In5       1.0  0.17500  0.47400  0.17500  1.0000
  In  In6       1.0  0.47400  0.17500  0.17500  1.0000
  In  In7       1.0  0.17500  0.17500  0.47400  1.0000
  In  In8       1.0  0.17500  0.17500  0.17500  1.0000
  N   N1        1.0  0.32600  0.32600  0.67400  1.0000
  N   N2        1.0  0.32600  0.67400  0.32600  1.0000
  N   N3        1.0  0.67400  0.67400  0.32600  1.0000
  N   N4        1.0  0.67400  0.32600  0.67400  1.0000
  N   N5        1.0  0.67400  0.32600  0.32600  1.0000
  N   N6        1.0  0.32600  0.67400  0.67400  1.0000
  N   N7        1.0  0.00000  0.00000  0.00000  1.0000
