data_image0
_chemical_formula_structural       In8N7Sr19
_chemical_formula_sum              "In8 N7 Sr19"
_cell_length_a       11.0907
_cell_length_b       11.0907
_cell_length_c       11.0907
_cell_angle_alpha    60
_cell_angle_beta     60
_cell_angle_gamma    60

_space_group_name_H-M_alt    "P 1"
_space_group_IT_number       1

loop_
  _space_group_symop_operation_xyz
  'x, y, z'

loop_
  _atom_site_type_symbol
  _atom_site_label
  _atom_site_symmetry_multiplicity
  _atom_site_fract_x
  _atom_site_fract_y
  _atom_site_fract_z
  _atom_site_occupancy
  In  In1       1.0  0.53300  0.82200  0.82200  1.0000
  In  In2       1.0  0.82200  0.53300  0.82200  1.0000
  In  In3       1.0  0.82200  0.82200  0.53300  1.0000
  In  In4       1.0  0.82200  0.82200  0.82200  1.0000
  In  In5       1.0  0.17800  0.46700  0.17800  1.0000
  In  In6       1.0  0.46700  0.17800  0.17800  1.0000
  In  In7       1.0  0.17800  0.17800  0.46700  1.0000
  In  In8       1.0  0.17800  0.17800  0.17800  1.0000
  N   N1        1.0  0.32600  0.32600  0.67400  1.0000
  N   N2        1.0  0.32600  0.67400  0.32600  1.0000
  N   N3        1.0  0.67400  0.67400  0.32600  1.0000
  N   N4        1.0  0.67400  0.32600  0.67400  1.0000
  N   N5        1.0  0.67400  0.32600  0.32600  1.0000
  N   N6        1.0  0.32600  0.67400  0.67400  1.0000
  N   N7        1.0  0.00000  0.00000  0.00000  1.0000
  Sr  Sr1       1.0  0.83000  0.17000  0.50000  1.0000
  Sr  Sr2       1.0  0.50000  0.83000  0.50000  1.0000
  Sr  Sr3       1.0  0.50000  0.50000  0.83000  1.0000
  Sr  Sr4       1.0  0.83000  0.50000  0.17000  1.0000
  Sr  Sr5       1.0  0.17000  0.83000  0.50000  1.0000
  Sr  Sr6       1.0  0.17000  0.50000  0.83000  1.0000
  Sr  Sr7       1.0  0.50000  0.50000  0.17000  1.0000
  Sr  Sr8       1.0  0.50000  0.17000  0.50000  1.0000
  Sr  Sr9       1.0  0.50000  0.83000  0.17000  1.0000
  Sr  Sr10      1.0  0.83000  0.50000  0.50000  1.0000
  Sr  Sr11      1.0  0.50000  0.17000  0.83000  1.0000
  Sr  Sr12      1.0  0.17000  0.50000  0.50000  1.0000
  Sr  Sr13      1.0  0.16700  0.16700  0.83300  1.0000
  Sr  Sr14      1.0  0.16700  0.83300  0.16700  1.0000
  Sr  Sr15      1.0  0.83300  0.83300  0.16700  1.0000
  Sr  Sr16      1.0  0.83300  0.16700  0.83300  1.0000
  Sr  Sr17      1.0  0.83300  0.16700  0.16700  1.0000
  Sr  Sr18      1.0  0.16700  0.83300  0.83300  1.0000
  Sr  Sr19      1.0  0.50000  0.50000  0.50000  1.0000
