data_image0
_chemical_formula_structural       Ce8In12Ru8
_chemical_formula_sum              "Ce8 In12 Ru8"
_cell_length_a       18.4093
_cell_length_b       4.55874
_cell_length_c       7.58482
_cell_angle_alpha    90
_cell_angle_beta     90
_cell_angle_gamma    90

_space_group_name_H-M_alt    "P 1"
_space_group_IT_number       1

loop_
  _space_group_symop_operation_xyz
  'x, y, z'

loop_
  _atom_site_type_symbol
  _atom_site_label
  _atom_site_symmetry_multiplicity
  _atom_site_fract_x
  _atom_site_fract_y
  _atom_site_fract_z
  _atom_site_occupancy
  Ce  Ce1       1.0  0.64500  0.75000  0.44200  1.0000
  Ce  Ce2       1.0  0.85500  0.25000  0.94200  1.0000
  Ce  Ce3       1.0  0.14500  0.75000  0.05760  1.0000
  Ce  Ce4       1.0  0.35500  0.25000  0.55800  1.0000
  Ce  Ce5       1.0  0.57500  0.75000  0.96700  1.0000
  Ce  Ce6       1.0  0.92500  0.25000  0.46700  1.0000
  Ce  Ce7       1.0  0.07550  0.75000  0.53300  1.0000
  Ce  Ce8       1.0  0.42500  0.25000  0.03290  1.0000
  In  In1       1.0  0.46900  0.75000  0.36400  1.0000
  In  In2       1.0  0.03110  0.25000  0.86400  1.0000
  In  In3       1.0  0.96900  0.75000  0.13600  1.0000
  In  In4       1.0  0.53100  0.25000  0.63600  1.0000
  In  In5       1.0  0.80800  0.75000  0.24600  1.0000
  In  In6       1.0  0.69200  0.25000  0.74600  1.0000
  In  In7       1.0  0.30800  0.75000  0.25400  1.0000
  In  In8       1.0  0.19200  0.25000  0.75400  1.0000
  In  In9       1.0  0.81100  0.75000  0.64400  1.0000
  In  In10      1.0  0.68900  0.25000  0.14400  1.0000
  In  In11      1.0  0.31100  0.75000  0.85600  1.0000
  In  In12      1.0  0.18900  0.25000  0.35600  1.0000
  Ru  Ru1       1.0  0.95500  0.75000  0.76400  1.0000
  Ru  Ru2       1.0  0.54500  0.25000  0.26400  1.0000
  Ru  Ru3       1.0  0.45500  0.75000  0.73600  1.0000
  Ru  Ru4       1.0  0.04460  0.25000  0.23600  1.0000
  Ru  Ru5       1.0  0.72500  0.75000  0.94300  1.0000
  Ru  Ru6       1.0  0.27500  0.25000  0.05650  1.0000
  Ru  Ru7       1.0  0.77500  0.25000  0.44300  1.0000
  Ru  Ru8       1.0  0.22500  0.75000  0.55700  1.0000
