data_image0
_chemical_formula_structural       O28P8Pb8
_chemical_formula_sum              "O28 P8 Pb8"
_cell_length_a       6.78499
_cell_length_b       6.78185
_cell_length_c       12.5239
_cell_angle_alpha    97.6723
_cell_angle_beta     92.6222
_cell_angle_gamma    89.7038

_space_group_name_H-M_alt    "P 1"
_space_group_IT_number       1

loop_
  _space_group_symop_operation_xyz
  'x, y, z'

loop_
  _atom_site_type_symbol
  _atom_site_label
  _atom_site_symmetry_multiplicity
  _atom_site_fract_x
  _atom_site_fract_y
  _atom_site_fract_z
  _atom_site_occupancy
  O   O1        1.0  0.30600  0.16600  0.84700  1.0000
  O   O2        1.0  0.69400  0.83400  0.15300  1.0000
  O   O3        1.0  0.30200  0.40500  0.01890  1.0000
  O   O4        1.0  0.69800  0.59500  0.98100  1.0000
  O   O5        1.0  0.30200  0.14800  0.15000  1.0000
  O   O6        1.0  0.69800  0.85200  0.85000  1.0000
  O   O7        1.0  0.60400  0.18500  0.03850  1.0000
  O   O8        1.0  0.39600  0.81500  0.96100  1.0000
  O   O9        1.0  0.51300  0.45800  0.18700  1.0000
  O   O10       1.0  0.48700  0.54200  0.81300  1.0000
  O   O11       1.0  0.91300  0.06310  0.68900  1.0000
  O   O12       1.0  0.08660  0.93700  0.31100  1.0000
  O   O13       1.0  0.60700  0.24400  0.64000  1.0000
  O   O14       1.0  0.39300  0.75600  0.36000  1.0000
  O   O15       1.0  0.68600  0.90600  0.53300  1.0000
  O   O16       1.0  0.31400  0.09420  0.46700  1.0000
  O   O17       1.0  0.89700  0.20500  0.51600  1.0000
  O   O18       1.0  0.10300  0.79500  0.48400  1.0000
  O   O19       1.0  0.98300  0.37900  0.35700  1.0000
  O   O20       1.0  0.01650  0.62100  0.64300  1.0000
  O   O21       1.0  0.69300  0.13600  0.33800  1.0000
  O   O22       1.0  0.30700  0.86400  0.66200  1.0000
  O   O23       1.0  0.67400  0.46900  0.45200  1.0000
  O   O24       1.0  0.32600  0.53100  0.54800  1.0000
  O   O25       1.0  0.01060  0.17500  0.96000  1.0000
  O   O26       1.0  0.98900  0.82500  0.04000  1.0000
  O   O27       1.0  0.06940  0.46400  0.86000  1.0000
  O   O28       1.0  0.93100  0.53600  0.14000  1.0000
  P   P1        1.0  0.43900  0.28900  0.10200  1.0000
  P   P2        1.0  0.56100  0.71100  0.89800  1.0000
  P   P3        1.0  0.76500  0.09580  0.59800  1.0000
  P   P4        1.0  0.23500  0.90400  0.40200  1.0000
  P   P5        1.0  0.16700  0.30300  0.91600  1.0000
  P   P6        1.0  0.83300  0.69700  0.08380  1.0000
  P   P7        1.0  0.81100  0.29700  0.41000  1.0000
  P   P8        1.0  0.18900  0.70300  0.59000  1.0000
  Pb  Pb1       1.0  0.31700  0.78200  0.14500  1.0000
  Pb  Pb2       1.0  0.68300  0.21800  0.85500  1.0000
  Pb  Pb3       1.0  0.91300  0.17700  0.15300  1.0000
  Pb  Pb4       1.0  0.08740  0.82300  0.84700  1.0000
  Pb  Pb5       1.0  0.76100  0.76400  0.34500  1.0000
  Pb  Pb6       1.0  0.23900  0.23600  0.65500  1.0000
  Pb  Pb7       1.0  0.35000  0.36800  0.35800  1.0000
  Pb  Pb8       1.0  0.65000  0.63200  0.64200  1.0000
