data_image0
_chemical_formula_structural       F6IrLi
_chemical_formula_sum              "F6 Ir1 Li1"
_cell_length_a       4.68814
_cell_length_b       4.68814
_cell_length_c       5.14065
_cell_angle_alpha    90
_cell_angle_beta     117.128
_cell_angle_gamma    60

_space_group_name_H-M_alt    "P 1"
_space_group_IT_number       1

loop_
  _space_group_symop_operation_xyz
  'x, y, z'

loop_
  _atom_site_type_symbol
  _atom_site_label
  _atom_site_symmetry_multiplicity
  _atom_site_fract_x
  _atom_site_fract_y
  _atom_site_fract_z
  _atom_site_occupancy
  F   F1        1.0  0.83300  0.24600  0.25000  1.0000
  F   F2        1.0  0.49600  0.92100  0.25000  1.0000
  F   F3        1.0  0.17000  0.58300  0.25000  1.0000
  F   F4        1.0  0.83000  0.41700  0.75000  1.0000
  F   F5        1.0  0.50400  0.07940  0.75000  1.0000
  F   F6        1.0  0.16700  0.75400  0.75000  1.0000
  Ir  Ir1       1.0  0.00000  0.00000  0.00000  1.0000
  Li  Li1       1.0  0.00000  0.50000  0.50000  1.0000
