data_image0
_chemical_formula_structural       Al4B12H48
_chemical_formula_sum              "Al4 B12 H48"
_cell_length_a       9.33332
_cell_length_b       9.33332
_cell_length_c       12.0457
_cell_angle_alpha    92.4187
_cell_angle_beta     87.5813
_cell_angle_gamma    148.742

_space_group_name_H-M_alt    "P 1"
_space_group_IT_number       1

loop_
  _space_group_symop_operation_xyz
  'x, y, z'

loop_
  _atom_site_type_symbol
  _atom_site_label
  _atom_site_symmetry_multiplicity
  _atom_site_fract_x
  _atom_site_fract_y
  _atom_site_fract_z
  _atom_site_occupancy
  Al  Al1       1.0  0.79500  0.05620  0.35100  1.0000
  Al  Al2       1.0  0.05620  0.79500  0.14900  1.0000
  Al  Al3       1.0  0.20500  0.94400  0.64900  1.0000
  Al  Al4       1.0  0.94400  0.20500  0.85100  1.0000
  B   B1        1.0  0.66300  0.81300  0.47800  1.0000
  B   B2        1.0  0.81300  0.66300  0.02250  1.0000
  B   B3        1.0  0.33700  0.18700  0.52200  1.0000
  B   B4        1.0  0.18700  0.33700  0.97800  1.0000
  B   B5        1.0  0.63900  0.84100  0.19800  1.0000
  B   B6        1.0  0.84100  0.63900  0.30200  1.0000
  B   B7        1.0  0.36100  0.15900  0.80200  1.0000
  B   B8        1.0  0.15900  0.36100  0.69800  1.0000
  B   B9        1.0  0.03730  0.44600  0.34900  1.0000
  B   B10       1.0  0.44600  0.03730  0.15100  1.0000
  B   B11       1.0  0.55400  0.96300  0.84900  1.0000
  B   B12       1.0  0.96300  0.55400  0.65100  1.0000
  H   H1        1.0  0.69400  0.81900  0.57300  1.0000
  H   H2        1.0  0.81900  0.69400  0.92700  1.0000
  H   H3        1.0  0.30600  0.18100  0.42700  1.0000
  H   H4        1.0  0.90100  0.00210  0.43400  1.0000
  H   H5        1.0  0.18100  0.30600  0.07340  1.0000
  H   H6        1.0  0.09870  0.99800  0.56600  1.0000
  H   H7        1.0  0.00210  0.90100  0.06600  1.0000
  H   H8        1.0  0.99800  0.09870  0.93400  1.0000
  H   H9        1.0  0.88700  0.03150  0.22700  1.0000
  H   H10       1.0  0.11300  0.96800  0.77300  1.0000
  H   H11       1.0  0.03150  0.88700  0.27300  1.0000
  H   H12       1.0  0.96800  0.11300  0.72700  1.0000
  H   H13       1.0  0.03180  0.43900  0.24900  1.0000
  H   H14       1.0  0.43900  0.03180  0.25100  1.0000
  H   H15       1.0  0.96800  0.56100  0.75100  1.0000
  H   H16       1.0  0.56100  0.96800  0.74900  1.0000
  H   H17       1.0  0.65700  0.89700  0.10500  1.0000
  H   H18       1.0  0.89700  0.65700  0.39500  1.0000
  H   H19       1.0  0.34300  0.10300  0.89500  1.0000
  H   H20       1.0  0.10300  0.34300  0.60500  1.0000
  H   H21       1.0  0.53700  0.86100  0.25200  1.0000
  H   H22       1.0  0.86100  0.53700  0.24800  1.0000
  H   H23       1.0  0.46300  0.13900  0.74800  1.0000
  H   H24       1.0  0.13900  0.46300  0.75200  1.0000
  H   H25       1.0  0.13700  0.41300  0.37900  1.0000
  H   H26       1.0  0.41300  0.13700  0.12100  1.0000
  H   H27       1.0  0.86300  0.58700  0.62100  1.0000
  H   H28       1.0  0.58700  0.86300  0.87900  1.0000
  H   H29       1.0  0.50200  0.60200  0.42500  1.0000
  H   H30       1.0  0.60200  0.50200  0.07510  1.0000
  H   H31       1.0  0.49800  0.39800  0.57500  1.0000
  H   H32       1.0  0.39800  0.49800  0.92500  1.0000
  H   H33       1.0  0.17200  0.65100  0.39700  1.0000
  H   H34       1.0  0.65100  0.17200  0.10300  1.0000
  H   H35       1.0  0.82800  0.34900  0.60300  1.0000
  H   H36       1.0  0.34900  0.82800  0.89700  1.0000
  H   H37       1.0  0.79400  0.25000  0.38700  1.0000
  H   H38       1.0  0.25000  0.79400  0.11300  1.0000
  H   H39       1.0  0.20600  0.75000  0.61300  1.0000
  H   H40       1.0  0.75000  0.20600  0.88700  1.0000
  H   H41       1.0  0.59000  0.88200  0.47600  1.0000
  H   H42       1.0  0.88200  0.59000  0.02390  1.0000
  H   H43       1.0  0.41000  0.11800  0.52400  1.0000
  H   H44       1.0  0.11800  0.41000  0.97600  1.0000
  H   H45       1.0  0.50500  0.62200  0.21800  1.0000
  H   H46       1.0  0.62200  0.50500  0.28200  1.0000
  H   H47       1.0  0.49500  0.37800  0.78200  1.0000
  H   H48       1.0  0.37800  0.49500  0.71800  1.0000
