data_image0
_chemical_formula_structural       B4H40Li16N12
_chemical_formula_sum              "B4 H40 Li16 N12"
_cell_length_a       8.81661
_cell_length_b       8.81661
_cell_length_c       8.81661
_cell_angle_alpha    109.471
_cell_angle_beta     109.471
_cell_angle_gamma    109.471

_space_group_name_H-M_alt    "P 1"
_space_group_IT_number       1

loop_
  _space_group_symop_operation_xyz
  'x, y, z'

loop_
  _atom_site_type_symbol
  _atom_site_label
  _atom_site_symmetry_multiplicity
  _atom_site_fract_x
  _atom_site_fract_y
  _atom_site_fract_z
  _atom_site_occupancy
  B   B1        1.0  0.00000  0.28200  0.50000  1.0000
  B   B2        1.0  0.28200  0.50000  0.00000  1.0000
  B   B3        1.0  0.50000  0.00000  0.28200  1.0000
  B   B4        1.0  0.21800  0.21800  0.21800  1.0000
  H   H1        1.0  0.00000  0.14300  0.50000  1.0000
  H   H2        1.0  0.14300  0.50000  0.00000  1.0000
  H   H3        1.0  0.50000  0.00000  0.14300  1.0000
  H   H4        1.0  0.35700  0.35700  0.35700  1.0000
  H   H5        1.0  0.90700  0.60000  0.91700  1.0000
  H   H6        1.0  0.90000  0.80700  0.31700  1.0000
  H   H7        1.0  0.31700  0.90000  0.80700  1.0000
  H   H8        1.0  0.99000  0.58300  0.18300  1.0000
  H   H9        1.0  0.18300  0.99000  0.58300  1.0000
  H   H10       1.0  0.60000  0.91700  0.90700  1.0000
  H   H11       1.0  0.59300  0.51000  0.69300  1.0000
  H   H12       1.0  0.51000  0.69300  0.59300  1.0000
  H   H13       1.0  0.91700  0.90700  0.60000  1.0000
  H   H14       1.0  0.80700  0.31700  0.90000  1.0000
  H   H15       1.0  0.58300  0.18300  0.99000  1.0000
  H   H16       1.0  0.69300  0.59300  0.51000  1.0000
  H   H17       1.0  0.36700  0.62500  0.97900  1.0000
  H   H18       1.0  0.87500  0.24300  0.35400  1.0000
  H   H19       1.0  0.35400  0.87500  0.24300  1.0000
  H   H20       1.0  0.38800  0.52100  0.14600  1.0000
  H   H21       1.0  0.14600  0.38800  0.52100  1.0000
  H   H22       1.0  0.62500  0.97900  0.36700  1.0000
  H   H23       1.0  0.13300  0.11200  0.25700  1.0000
  H   H24       1.0  0.11200  0.25700  0.13300  1.0000
  H   H25       1.0  0.97900  0.36700  0.62500  1.0000
  H   H26       1.0  0.24300  0.35400  0.87500  1.0000
  H   H27       1.0  0.52100  0.14600  0.38800  1.0000
  H   H28       1.0  0.25700  0.13300  0.11200  1.0000
  H   H29       1.0  0.06560  0.79500  0.10600  1.0000
  H   H30       1.0  0.70500  0.77100  0.31100  1.0000
  H   H31       1.0  0.31100  0.70500  0.77100  1.0000
  H   H32       1.0  0.96000  0.39400  0.18900  1.0000
  H   H33       1.0  0.18900  0.96000  0.39400  1.0000
  H   H34       1.0  0.79500  0.10600  0.06560  1.0000
  H   H35       1.0  0.43400  0.54000  0.72900  1.0000
  H   H36       1.0  0.54000  0.72900  0.43400  1.0000
  H   H37       1.0  0.10600  0.06560  0.79500  1.0000
  H   H38       1.0  0.77100  0.31100  0.70500  1.0000
  H   H39       1.0  0.39400  0.18900  0.96000  1.0000
  H   H40       1.0  0.72900  0.43400  0.54000  1.0000
  Li  Li1       1.0  0.97500  0.22500  0.75000  1.0000
  Li  Li2       1.0  0.22500  0.75000  0.97500  1.0000
  Li  Li3       1.0  0.52500  0.27500  0.25000  1.0000
  Li  Li4       1.0  0.27500  0.25000  0.52500  1.0000
  Li  Li5       1.0  0.75000  0.97500  0.22500  1.0000
  Li  Li6       1.0  0.25000  0.52500  0.27500  1.0000
  Li  Li7       1.0  0.00000  0.53300  0.50000  1.0000
  Li  Li8       1.0  0.53300  0.50000  0.00000  1.0000
  Li  Li9       1.0  0.50000  0.00000  0.53300  1.0000
  Li  Li10      1.0  0.96700  0.96700  0.96700  1.0000
  Li  Li11      1.0  0.73600  0.98600  0.75000  1.0000
  Li  Li12      1.0  0.98600  0.75000  0.73600  1.0000
  Li  Li13      1.0  0.76400  0.51400  0.25000  1.0000
  Li  Li14      1.0  0.51400  0.25000  0.76400  1.0000
  Li  Li15      1.0  0.75000  0.73600  0.98600  1.0000
  Li  Li16      1.0  0.25000  0.76400  0.51400  1.0000
  N   N1        1.0  0.98200  0.74000  0.96600  1.0000
  N   N2        1.0  0.76000  0.74200  0.22600  1.0000
  N   N3        1.0  0.22600  0.76000  0.74200  1.0000
  N   N4        1.0  0.01560  0.53400  0.27400  1.0000
  N   N5        1.0  0.27400  0.01560  0.53400  1.0000
  N   N6        1.0  0.74000  0.96600  0.98200  1.0000
  N   N7        1.0  0.51800  0.48400  0.75800  1.0000
  N   N8        1.0  0.48400  0.75800  0.51800  1.0000
  N   N9        1.0  0.96600  0.98200  0.74000  1.0000
  N   N10       1.0  0.74200  0.22600  0.76000  1.0000
  N   N11       1.0  0.53400  0.27400  0.01560  1.0000
  N   N12       1.0  0.75800  0.51800  0.48400  1.0000
