data_image0
_chemical_formula_structural       In9Nd11Pd4
_chemical_formula_sum              "In9 Nd11 Pd4"
_cell_length_a       13.5886
_cell_length_b       13.5886
_cell_length_c       3.7323
_cell_angle_alpha    90
_cell_angle_beta     90
_cell_angle_gamma    67.2285

_space_group_name_H-M_alt    "P 1"
_space_group_IT_number       1

loop_
  _space_group_symop_operation_xyz
  'x, y, z'

loop_
  _atom_site_type_symbol
  _atom_site_label
  _atom_site_symmetry_multiplicity
  _atom_site_fract_x
  _atom_site_fract_y
  _atom_site_fract_z
  _atom_site_occupancy
  In  In1       1.0  0.93000  0.21600  0.50000  1.0000
  In  In2       1.0  0.07020  0.78400  0.50000  1.0000
  In  In3       1.0  0.78400  0.07020  0.50000  1.0000
  In  In4       1.0  0.21600  0.93000  0.50000  1.0000
  In  In5       1.0  0.50000  0.50000  0.00000  1.0000
  In  In6       1.0  0.15500  0.36600  0.50000  1.0000
  In  In7       1.0  0.84500  0.63400  0.50000  1.0000
  In  In8       1.0  0.63400  0.84500  0.50000  1.0000
  In  In9       1.0  0.36600  0.15500  0.50000  1.0000
  Nd  Nd1       1.0  0.70800  0.29200  0.00000  1.0000
  Nd  Nd2       1.0  0.29200  0.70800  0.00000  1.0000
  Nd  Nd3       1.0  0.00000  0.00000  0.00000  1.0000
  Nd  Nd4       1.0  0.84000  0.84000  0.00000  1.0000
  Nd  Nd5       1.0  0.16000  0.16000  0.00000  1.0000
  Nd  Nd6       1.0  0.63900  0.63900  0.00000  1.0000
  Nd  Nd7       1.0  0.36100  0.36100  0.00000  1.0000
  Nd  Nd8       1.0  0.92900  0.41500  0.00000  1.0000
  Nd  Nd9       1.0  0.07070  0.58500  0.00000  1.0000
  Nd  Nd10      1.0  0.58500  0.07070  0.00000  1.0000
  Nd  Nd11      1.0  0.41500  0.92900  0.00000  1.0000
  Pd  Pd1       1.0  0.75500  0.44700  0.50000  1.0000
  Pd  Pd2       1.0  0.24500  0.55300  0.50000  1.0000
  Pd  Pd3       1.0  0.55300  0.24500  0.50000  1.0000
  Pd  Pd4       1.0  0.44700  0.75500  0.50000  1.0000
