data_image0
_chemical_formula_structural       Fe3H6NaO14S2
_chemical_formula_sum              "Fe3 H6 Na1 O14 S2"
_cell_length_a       6.67687
_cell_length_b       6.67687
_cell_length_c       6.67657
_cell_angle_alpha    64.8603
_cell_angle_beta     64.8603
_cell_angle_gamma    64.8594

_space_group_name_H-M_alt    "P 1"
_space_group_IT_number       1

loop_
  _space_group_symop_operation_xyz
  'x, y, z'

loop_
  _atom_site_type_symbol
  _atom_site_label
  _atom_site_symmetry_multiplicity
  _atom_site_fract_x
  _atom_site_fract_y
  _atom_site_fract_z
  _atom_site_occupancy
  Fe  Fe1       1.0  0.50000  0.00000  0.00001  1.0000
  Fe  Fe2       1.0  0.00001  0.00001  0.50000  1.0000
  Fe  Fe3       1.0  0.00000  0.50000  0.00001  1.0000
  H   H1        1.0  0.68400  0.29400  0.68400  1.0000
  H   H2        1.0  0.68400  0.68400  0.29400  1.0000
  H   H3        1.0  0.29400  0.68400  0.68400  1.0000
  H   H4        1.0  0.70600  0.31600  0.31600  1.0000
  H   H5        1.0  0.31600  0.31600  0.70600  1.0000
  H   H6        1.0  0.31600  0.70600  0.31600  1.0000
  Na  Na1       1.0  0.00000  1.00000  0.00015  1.0000
  O   O1        1.0  0.58600  0.58600  0.58600  1.0000
  O   O2        1.0  0.41400  0.41400  0.41400  1.0000
  O   O3        1.0  0.82300  0.48400  0.82300  1.0000
  O   O4        1.0  0.82300  0.82300  0.48300  1.0000
  O   O5        1.0  0.48400  0.82300  0.82300  1.0000
  O   O6        1.0  0.51600  0.17700  0.17700  1.0000
  O   O7        1.0  0.17700  0.17700  0.51700  1.0000
  O   O8        1.0  0.17700  0.51600  0.17700  1.0000
  O   O9        1.0  0.74200  0.12300  0.74200  1.0000
  O   O10       1.0  0.74200  0.74200  0.12300  1.0000
  O   O11       1.0  0.12300  0.74200  0.74200  1.0000
  O   O12       1.0  0.87700  0.25800  0.25800  1.0000
  O   O13       1.0  0.25800  0.25800  0.87700  1.0000
  O   O14       1.0  0.25800  0.87700  0.25800  1.0000
  S   S1        1.0  0.68000  0.68000  0.68000  1.0000
  S   S2        1.0  0.32000  0.32000  0.32000  1.0000
