data_image0
_chemical_formula_structural       H24Li4N12Na8
_chemical_formula_sum              "H24 Li4 N12 Na8"
_cell_length_a       6.04352
_cell_length_b       6.04352
_cell_length_c       10.5111
_cell_angle_alpha    90
_cell_angle_beta     90
_cell_angle_gamma    90

_space_group_name_H-M_alt    "P 1"
_space_group_IT_number       1

loop_
  _space_group_symop_operation_xyz
  'x, y, z'

loop_
  _atom_site_type_symbol
  _atom_site_label
  _atom_site_symmetry_multiplicity
  _atom_site_fract_x
  _atom_site_fract_y
  _atom_site_fract_z
  _atom_site_occupancy
  H   H1        1.0  0.23500  0.69100  0.92300  1.0000
  H   H2        1.0  0.30900  0.23500  0.57700  1.0000
  H   H3        1.0  0.69100  0.76500  0.42300  1.0000
  H   H4        1.0  0.30900  0.23500  0.42300  1.0000
  H   H5        1.0  0.76500  0.30900  0.92300  1.0000
  H   H6        1.0  0.04280  0.34700  0.85900  1.0000
  H   H7        1.0  0.95700  0.65300  0.85900  1.0000
  H   H8        1.0  0.65300  0.04280  0.64100  1.0000
  H   H9        1.0  0.34700  0.95700  0.64100  1.0000
  H   H10       1.0  0.95700  0.65300  0.14100  1.0000
  H   H11       1.0  0.83900  0.15100  0.26900  1.0000
  H   H12       1.0  0.04280  0.34700  0.14100  1.0000
  H   H13       1.0  0.16100  0.84900  0.26900  1.0000
  H   H14       1.0  0.15100  0.16100  0.76900  1.0000
  H   H15       1.0  0.84900  0.83900  0.76900  1.0000
  H   H16       1.0  0.16100  0.84900  0.73100  1.0000
  H   H17       1.0  0.83900  0.15100  0.73100  1.0000
  H   H18       1.0  0.84900  0.83900  0.23100  1.0000
  H   H19       1.0  0.15100  0.16100  0.23100  1.0000
  H   H20       1.0  0.69100  0.76500  0.57700  1.0000
  H   H21       1.0  0.76500  0.30900  0.07720  1.0000
  H   H22       1.0  0.23500  0.69100  0.07720  1.0000
  H   H23       1.0  0.65300  0.04280  0.35900  1.0000
  H   H24       1.0  0.34700  0.95700  0.35900  1.0000
  Li  Li1       1.0  0.63900  0.34400  0.50000  1.0000
  Li  Li2       1.0  0.34400  0.36100  0.00000  1.0000
  Li  Li3       1.0  0.65600  0.63900  0.00000  1.0000
  Li  Li4       1.0  0.36100  0.65600  0.50000  1.0000
  N   N1        1.0  0.72200  0.66500  0.50000  1.0000
  N   N2        1.0  0.33500  0.72200  0.00000  1.0000
  N   N3        1.0  0.66500  0.27800  0.00000  1.0000
  N   N4        1.0  0.72300  0.19300  0.33600  1.0000
  N   N5        1.0  0.27700  0.80700  0.33600  1.0000
  N   N6        1.0  0.19300  0.27700  0.83600  1.0000
  N   N7        1.0  0.80700  0.72300  0.83600  1.0000
  N   N8        1.0  0.27700  0.80700  0.66400  1.0000
  N   N9        1.0  0.72300  0.19300  0.66400  1.0000
  N   N10       1.0  0.80700  0.72300  0.16400  1.0000
  N   N11       1.0  0.19300  0.27700  0.16400  1.0000
  N   N12       1.0  0.27800  0.33500  0.50000  1.0000
  Na  Na1       1.0  0.50000  0.50000  0.75000  1.0000
  Na  Na2       1.0  0.50000  0.00000  0.14400  1.0000
  Na  Na3       1.0  0.00000  0.50000  0.64400  1.0000
  Na  Na4       1.0  0.50000  0.50000  0.25000  1.0000
  Na  Na5       1.0  0.00000  0.00000  0.50000  1.0000
  Na  Na6       1.0  0.00000  0.00000  0.00000  1.0000
  Na  Na7       1.0  0.00000  0.50000  0.35600  1.0000
  Na  Na8       1.0  0.50000  0.00000  0.85600  1.0000
