data_image0
_chemical_formula_structural       C2Eu2H10O14P2
_chemical_formula_sum              "C2 Eu2 H10 O14 P2"
_cell_length_a       6.14324
_cell_length_b       6.60537
_cell_length_c       6.91169
_cell_angle_alpha    115.214
_cell_angle_beta     86.2598
_cell_angle_gamma    97.7285

_space_group_name_H-M_alt    "P 1"
_space_group_IT_number       1

loop_
  _space_group_symop_operation_xyz
  'x, y, z'

loop_
  _atom_site_type_symbol
  _atom_site_label
  _atom_site_symmetry_multiplicity
  _atom_site_fract_x
  _atom_site_fract_y
  _atom_site_fract_z
  _atom_site_occupancy
  C   C1        1.0  0.88200  0.15600  0.48600  1.0000
  C   C2        1.0  0.11800  0.84400  0.51400  1.0000
  Eu  Eu1       1.0  0.84200  0.71200  0.97100  1.0000
  Eu  Eu2       1.0  0.15800  0.28800  0.02910  1.0000
  H   H1        1.0  0.82500  0.47900  0.43900  1.0000
  H   H2        1.0  0.17500  0.52100  0.56100  1.0000
  H   H3        1.0  0.54000  0.95200  0.63200  1.0000
  H   H4        1.0  0.46000  0.04780  0.36800  1.0000
  H   H5        1.0  0.53200  0.77400  0.38100  1.0000
  H   H6        1.0  0.46800  0.22600  0.61900  1.0000
  H   H7        1.0  0.48200  0.79000  0.82900  1.0000
  H   H8        1.0  0.51800  0.21000  0.17100  1.0000
  H   H9        1.0  0.69400  0.67300  0.57400  1.0000
  H   H10       1.0  0.30600  0.32700  0.42600  1.0000
  O   O1        1.0  0.20200  0.96400  0.07860  1.0000
  O   O2        1.0  0.79800  0.03630  0.92100  1.0000
  O   O3        1.0  0.47900  0.74300  0.14400  1.0000
  O   O4        1.0  0.52100  0.25700  0.85600  1.0000
  O   O5        1.0  0.18200  0.55000  0.86400  1.0000
  O   O6        1.0  0.81800  0.45000  0.13600  1.0000
  O   O7        1.0  0.05610  0.78600  0.34100  1.0000
  O   O8        1.0  0.94400  0.21400  0.65900  1.0000
  O   O9        1.0  0.82400  0.09970  0.31100  1.0000
  O   O10       1.0  0.17600  0.90000  0.68900  1.0000
  O   O11       1.0  0.77900  0.55500  0.58900  1.0000
  O   O12       1.0  0.22100  0.44500  0.41100  1.0000
  O   O13       1.0  0.61500  0.83600  0.51700  1.0000
  O   O14       1.0  0.38500  0.16400  0.48300  1.0000
  P   P1        1.0  0.33500  0.76500  0.98300  1.0000
  P   P2        1.0  0.66500  0.23500  0.01700  1.0000
