data_image0
_chemical_formula_structural       Ca4Ge8O20
_chemical_formula_sum              "Ca4 Ge8 O20"
_cell_length_a       7.15571
_cell_length_b       8.2522
_cell_length_c       5.72177
_cell_angle_alpha    90
_cell_angle_beta     90
_cell_angle_gamma    90

_space_group_name_H-M_alt    "P 1"
_space_group_IT_number       1

loop_
  _space_group_symop_operation_xyz
  'x, y, z'

loop_
  _atom_site_type_symbol
  _atom_site_label
  _atom_site_symmetry_multiplicity
  _atom_site_fract_x
  _atom_site_fract_y
  _atom_site_fract_z
  _atom_site_occupancy
  Ca  Ca1       1.0  0.37100  0.16600  0.50000  1.0000
  Ca  Ca2       1.0  0.62900  0.83400  0.50000  1.0000
  Ca  Ca3       1.0  0.87100  0.33400  0.50000  1.0000
  Ca  Ca4       1.0  0.12900  0.66600  0.50000  1.0000
  Ge  Ge1       1.0  0.50000  0.50000  0.25500  1.0000
  Ge  Ge2       1.0  0.00000  0.00000  0.74500  1.0000
  Ge  Ge3       1.0  0.50000  0.50000  0.74500  1.0000
  Ge  Ge4       1.0  0.00000  0.00000  0.25500  1.0000
  Ge  Ge5       1.0  0.60700  0.14800  0.00000  1.0000
  Ge  Ge6       1.0  0.39300  0.85200  0.00000  1.0000
  Ge  Ge7       1.0  0.10700  0.35200  0.00000  1.0000
  Ge  Ge8       1.0  0.89300  0.64800  0.00000  1.0000
  O   O1        1.0  0.61200  0.29300  0.24400  1.0000
  O   O2        1.0  0.38800  0.70700  0.24400  1.0000
  O   O3        1.0  0.11200  0.20700  0.75600  1.0000
  O   O4        1.0  0.88800  0.79300  0.75600  1.0000
  O   O5        1.0  0.38800  0.70700  0.75600  1.0000
  O   O6        1.0  0.61200  0.29300  0.75600  1.0000
  O   O7        1.0  0.88800  0.79300  0.24400  1.0000
  O   O8        1.0  0.11200  0.20700  0.24400  1.0000
  O   O9        1.0  0.50000  0.00000  0.21000  1.0000
  O   O10       1.0  0.33700  0.44300  0.50000  1.0000
  O   O11       1.0  0.66300  0.55700  0.50000  1.0000
  O   O12       1.0  0.83700  0.05730  0.50000  1.0000
  O   O13       1.0  0.16300  0.94300  0.50000  1.0000
  O   O14       1.0  0.84700  0.07680  0.00000  1.0000
  O   O15       1.0  0.15300  0.92300  0.00000  1.0000
  O   O16       1.0  0.34700  0.42300  0.00000  1.0000
  O   O17       1.0  0.65300  0.57700  0.00000  1.0000
  O   O18       1.0  0.00000  0.50000  0.79000  1.0000
  O   O19       1.0  0.50000  0.00000  0.79000  1.0000
  O   O20       1.0  0.00000  0.50000  0.21000  1.0000
