data_image0
_chemical_formula_structural       Ba2Co9O14
_chemical_formula_sum              "Ba2 Co9 O14"
_cell_length_a       10.1271
_cell_length_b       10.1212
_cell_length_c       10.119
_cell_angle_alpha    32.19
_cell_angle_beta     32.2075
_cell_angle_gamma    32.2204

_space_group_name_H-M_alt    "P 1"
_space_group_IT_number       1

loop_
  _space_group_symop_operation_xyz
  'x, y, z'

loop_
  _atom_site_type_symbol
  _atom_site_label
  _atom_site_symmetry_multiplicity
  _atom_site_fract_x
  _atom_site_fract_y
  _atom_site_fract_z
  _atom_site_occupancy
  Ba  Ba1       1.0  0.87900  0.87800  0.87700  1.0000
  Ba  Ba2       1.0  0.11900  0.11800  0.11900  1.0000
  Co  Co1       1.0  0.50000  0.99900  0.49900  1.0000
  Co  Co2       1.0  0.50000  0.50000  0.99900  1.0000
  Co  Co3       1.0  0.99900  0.50000  0.49900  1.0000
  Co  Co4       1.0  0.58700  0.58700  0.58600  1.0000
  Co  Co5       1.0  0.41200  0.41300  0.41600  1.0000
  Co  Co6       1.0  0.23300  0.23400  0.23300  1.0000
  Co  Co7       1.0  0.76600  0.76600  0.76500  1.0000
  Co  Co8       1.0  0.50000  0.50100  0.50100  1.0000
  Co  Co9       1.0  0.99800  0.99800  0.99800  1.0000
  O   O1        1.0  0.70400  0.20000  0.19900  1.0000
  O   O2        1.0  0.20000  0.70400  0.20000  1.0000
  O   O3        1.0  0.20000  0.20000  0.70300  1.0000
  O   O4        1.0  0.79000  0.31000  0.78900  1.0000
  O   O5        1.0  0.31000  0.79000  0.78900  1.0000
  O   O6        1.0  0.79000  0.79000  0.30900  1.0000
  O   O7        1.0  0.70000  0.70000  0.70000  1.0000
  O   O8        1.0  0.30000  0.30000  0.29900  1.0000
  O   O9        1.0  0.84400  0.39600  0.39400  1.0000
  O   O10       1.0  0.39700  0.84400  0.39400  1.0000
  O   O11       1.0  0.39700  0.39600  0.84300  1.0000
  O   O12       1.0  0.61500  0.14800  0.61800  1.0000
  O   O13       1.0  0.14600  0.61700  0.62100  1.0000
  O   O14       1.0  0.61300  0.61400  0.15100  1.0000
