data_image0
_chemical_formula_structural       Ba2Ca2Fe8O14
_chemical_formula_sum              "Ba2 Ca2 Fe8 O14"
_cell_length_a       6.34334
_cell_length_b       6.34334
_cell_length_c       10.2259
_cell_angle_alpha    89.9468
_cell_angle_beta     89.9468
_cell_angle_gamma    119.575

_space_group_name_H-M_alt    "P 1"
_space_group_IT_number       1

loop_
  _space_group_symop_operation_xyz
  'x, y, z'

loop_
  _atom_site_type_symbol
  _atom_site_label
  _atom_site_symmetry_multiplicity
  _atom_site_fract_x
  _atom_site_fract_y
  _atom_site_fract_z
  _atom_site_occupancy
  Ba  Ba1       1.0  0.34900  0.67900  0.00708  1.0000
  Ba  Ba2       1.0  0.67900  0.34900  0.50700  1.0000
  Ca  Ca1       1.0  0.67300  0.33700  0.87900  1.0000
  Ca  Ca2       1.0  0.33700  0.67300  0.37900  1.0000
  Fe  Fe1       1.0  0.15500  0.79300  0.68600  1.0000
  Fe  Fe2       1.0  0.19900  0.34000  0.68900  1.0000
  Fe  Fe3       1.0  0.63700  0.83900  0.68400  1.0000
  Fe  Fe4       1.0  0.79300  0.15500  0.18600  1.0000
  Fe  Fe5       1.0  0.83900  0.63700  0.18400  1.0000
  Fe  Fe6       1.0  0.34000  0.19900  0.18900  1.0000
  Fe  Fe7       1.0  0.00860  0.01460  0.43900  1.0000
  Fe  Fe8       1.0  0.01460  0.00860  0.93900  1.0000
  O   O1        1.0  0.98200  0.99000  0.25000  1.0000
  O   O2        1.0  0.99000  0.98200  0.75000  1.0000
  O   O3        1.0  0.09970  0.79000  0.50100  1.0000
  O   O4        1.0  0.24200  0.32000  0.49200  1.0000
  O   O5        1.0  0.32000  0.24200  0.99200  1.0000
  O   O6        1.0  0.54200  0.51600  0.73100  1.0000
  O   O7        1.0  0.46100  0.97200  0.76900  1.0000
  O   O8        1.0  0.98000  0.46100  0.73100  1.0000
  O   O9        1.0  0.51600  0.54200  0.23100  1.0000
  O   O10       1.0  0.46100  0.98000  0.23100  1.0000
  O   O11       1.0  0.97200  0.46100  0.26900  1.0000
  O   O12       1.0  0.69100  0.92900  0.50100  1.0000
  O   O13       1.0  0.79000  0.09970  0.00085  1.0000
  O   O14       1.0  0.92900  0.69100  0.00116  1.0000
