data_image0
_chemical_formula_structural       Lu2O18P6
_chemical_formula_sum              "Lu2 O18 P6"
_cell_length_a       7.4656
_cell_length_b       7.4656
_cell_length_c       9.46856
_cell_angle_alpha    54.8087
_cell_angle_beta     125.191
_cell_angle_gamma    128.491

_space_group_name_H-M_alt    "P 1"
_space_group_IT_number       1

loop_
  _space_group_symop_operation_xyz
  'x, y, z'

loop_
  _atom_site_type_symbol
  _atom_site_label
  _atom_site_symmetry_multiplicity
  _atom_site_fract_x
  _atom_site_fract_y
  _atom_site_fract_z
  _atom_site_occupancy
  Lu  Lu1       1.0  0.39900  0.15000  0.35500  1.0000
  Lu  Lu2       1.0  0.85000  0.60100  0.85500  1.0000
  O   O1        1.0  0.80500  0.98500  0.39400  1.0000
  O   O2        1.0  0.01530  0.19500  0.89400  1.0000
  O   O3        1.0  0.25400  0.08680  0.52800  1.0000
  O   O4        1.0  0.91300  0.74600  0.02780  1.0000
  O   O5        1.0  0.03910  0.97700  0.71700  1.0000
  O   O6        1.0  0.02260  0.96100  0.21700  1.0000
  O   O7        1.0  0.11700  0.37500  0.45400  1.0000
  O   O8        1.0  0.62500  0.88300  0.95400  1.0000
  O   O9        1.0  0.55400  0.23300  0.17800  1.0000
  O   O10       1.0  0.76700  0.44600  0.67800  1.0000
  O   O11       1.0  0.45500  0.89900  0.11200  1.0000
  O   O12       1.0  0.10100  0.54500  0.61200  1.0000
  O   O13       1.0  0.37900  0.80100  0.43700  1.0000
  O   O14       1.0  0.19900  0.62100  0.93700  1.0000
  O   O15       1.0  0.53100  0.54000  0.24600  1.0000
  O   O16       1.0  0.46000  0.46900  0.74600  1.0000
  O   O17       1.0  0.72000  0.15400  0.58800  1.0000
  O   O18       1.0  0.84600  0.28000  0.08760  1.0000
  P   P1        1.0  0.66900  0.11800  0.18800  1.0000
  P   P2        1.0  0.88200  0.33100  0.68800  1.0000
  P   P3        1.0  0.06700  0.09690  0.53500  1.0000
  P   P4        1.0  0.90300  0.93300  0.03480  1.0000
  P   P5        1.0  0.28400  0.55500  0.56800  1.0000
  P   P6        1.0  0.44500  0.71600  0.06780  1.0000
