data_image0
_chemical_formula_structural       Fe12Mo12N4
_chemical_formula_sum              "Fe12 Mo12 N4"
_cell_length_a       7.78179
_cell_length_b       7.78179
_cell_length_c       7.78179
_cell_angle_alpha    60
_cell_angle_beta     60
_cell_angle_gamma    60

_space_group_name_H-M_alt    "P 1"
_space_group_IT_number       1

loop_
  _space_group_symop_operation_xyz
  'x, y, z'

loop_
  _atom_site_type_symbol
  _atom_site_label
  _atom_site_symmetry_multiplicity
  _atom_site_fract_x
  _atom_site_fract_y
  _atom_site_fract_z
  _atom_site_occupancy
  Fe  Fe1       1.0  0.50000  0.00000  0.50000  1.0000
  Fe  Fe2       1.0  0.00000  0.50000  0.50000  1.0000
  Fe  Fe3       1.0  0.50000  0.50000  0.00000  1.0000
  Fe  Fe4       1.0  0.50000  0.50000  0.50000  1.0000
  Fe  Fe5       1.0  0.39300  0.70200  0.70200  1.0000
  Fe  Fe6       1.0  0.70200  0.39300  0.70200  1.0000
  Fe  Fe7       1.0  0.70200  0.70200  0.39300  1.0000
  Fe  Fe8       1.0  0.70200  0.70200  0.70200  1.0000
  Fe  Fe9       1.0  0.29800  0.60700  0.29800  1.0000
  Fe  Fe10      1.0  0.60700  0.29800  0.29800  1.0000
  Fe  Fe11      1.0  0.29800  0.29800  0.60700  1.0000
  Fe  Fe12      1.0  0.29800  0.29800  0.29800  1.0000
  Mo  Mo1       1.0  0.07770  0.07770  0.67200  1.0000
  Mo  Mo2       1.0  0.67200  0.07770  0.07770  1.0000
  Mo  Mo3       1.0  0.67200  0.67200  0.07770  1.0000
  Mo  Mo4       1.0  0.07770  0.67200  0.67200  1.0000
  Mo  Mo5       1.0  0.07770  0.67200  0.07770  1.0000
  Mo  Mo6       1.0  0.67200  0.07770  0.67200  1.0000
  Mo  Mo7       1.0  0.92200  0.92200  0.32800  1.0000
  Mo  Mo8       1.0  0.92200  0.32800  0.92200  1.0000
  Mo  Mo9       1.0  0.32800  0.32800  0.92200  1.0000
  Mo  Mo10      1.0  0.32800  0.92200  0.32800  1.0000
  Mo  Mo11      1.0  0.32800  0.92200  0.92200  1.0000
  Mo  Mo12      1.0  0.92200  0.32800  0.32800  1.0000
  N   N1        1.0  0.00000  0.50000  0.00000  1.0000
  N   N2        1.0  0.50000  0.00000  0.00000  1.0000
  N   N3        1.0  0.00000  0.00000  0.50000  1.0000
  N   N4        1.0  0.00000  0.00000  0.00000  1.0000
