data_image0
_chemical_formula_structural       Co12Mo12N4
_chemical_formula_sum              "Co12 Mo12 N4"
_cell_length_a       7.79287
_cell_length_b       7.79287
_cell_length_c       7.79287
_cell_angle_alpha    60
_cell_angle_beta     60
_cell_angle_gamma    60

_space_group_name_H-M_alt    "P 1"
_space_group_IT_number       1

loop_
  _space_group_symop_operation_xyz
  'x, y, z'

loop_
  _atom_site_type_symbol
  _atom_site_label
  _atom_site_symmetry_multiplicity
  _atom_site_fract_x
  _atom_site_fract_y
  _atom_site_fract_z
  _atom_site_occupancy
  Co  Co1       1.0  0.38300  0.70600  0.70600  1.0000
  Co  Co2       1.0  0.70600  0.38300  0.70600  1.0000
  Co  Co3       1.0  0.70600  0.70600  0.38300  1.0000
  Co  Co4       1.0  0.70600  0.70600  0.70600  1.0000
  Co  Co5       1.0  0.29400  0.61700  0.29400  1.0000
  Co  Co6       1.0  0.61700  0.29400  0.29400  1.0000
  Co  Co7       1.0  0.29400  0.29400  0.61700  1.0000
  Co  Co8       1.0  0.29400  0.29400  0.29400  1.0000
  Co  Co9       1.0  0.50000  0.00000  0.50000  1.0000
  Co  Co10      1.0  0.00000  0.50000  0.50000  1.0000
  Co  Co11      1.0  0.50000  0.50000  0.00000  1.0000
  Co  Co12      1.0  0.50000  0.50000  0.50000  1.0000
  Mo  Mo1       1.0  0.07720  0.07720  0.67300  1.0000
  Mo  Mo2       1.0  0.67300  0.07720  0.07720  1.0000
  Mo  Mo3       1.0  0.67300  0.67300  0.07720  1.0000
  Mo  Mo4       1.0  0.07720  0.67300  0.67300  1.0000
  Mo  Mo5       1.0  0.07720  0.67300  0.07720  1.0000
  Mo  Mo6       1.0  0.67300  0.07720  0.67300  1.0000
  Mo  Mo7       1.0  0.92300  0.92300  0.32700  1.0000
  Mo  Mo8       1.0  0.92300  0.32700  0.92300  1.0000
  Mo  Mo9       1.0  0.32700  0.32700  0.92300  1.0000
  Mo  Mo10      1.0  0.32700  0.92300  0.32700  1.0000
  Mo  Mo11      1.0  0.32700  0.92300  0.92300  1.0000
  Mo  Mo12      1.0  0.92300  0.32700  0.32700  1.0000
  N   N1        1.0  0.00000  0.50000  0.00000  1.0000
  N   N2        1.0  0.50000  0.00000  0.00000  1.0000
  N   N3        1.0  0.00000  0.00000  0.50000  1.0000
  N   N4        1.0  0.00000  0.00000  0.00000  1.0000
