data_image0
_chemical_formula_structural       Na2O12Si4V2
_chemical_formula_sum              "Na2 O12 Si4 V2"
_cell_length_a       6.44728
_cell_length_b       6.44725
_cell_length_c       5.20769
_cell_angle_alpha    77.943
_cell_angle_beta     102.056
_cell_angle_gamma    95.9074

_space_group_name_H-M_alt    "P 1"
_space_group_IT_number       1

loop_
  _space_group_symop_operation_xyz
  'x, y, z'

loop_
  _atom_site_type_symbol
  _atom_site_label
  _atom_site_symmetry_multiplicity
  _atom_site_fract_x
  _atom_site_fract_y
  _atom_site_fract_z
  _atom_site_occupancy
  Na  Na1       1.0  0.69100  0.69100  0.75000  1.0000
  Na  Na2       1.0  0.30900  0.30900  0.25000  1.0000
  O   O1        1.0  0.03070  0.80100  0.63800  1.0000
  O   O2        1.0  0.80100  0.03070  0.86200  1.0000
  O   O3        1.0  0.96900  0.19900  0.36200  1.0000
  O   O4        1.0  0.19900  0.96900  0.13800  1.0000
  O   O5        1.0  0.09970  0.38200  0.82400  1.0000
  O   O6        1.0  0.38200  0.09970  0.67600  1.0000
  O   O7        1.0  0.90000  0.61800  0.17600  1.0000
  O   O8        1.0  0.61800  0.90000  0.32400  1.0000
  O   O9        1.0  0.33300  0.62300  0.49600  1.0000
  O   O10       1.0  0.62300  0.33300  0.00388  1.0000
  O   O11       1.0  0.66700  0.37700  0.50400  1.0000
  O   O12       1.0  0.37700  0.66700  0.99600  1.0000
  Si  Si1       1.0  0.20000  0.61500  0.73500  1.0000
  Si  Si2       1.0  0.61500  0.20000  0.76500  1.0000
  Si  Si3       1.0  0.80000  0.38500  0.26500  1.0000
  Si  Si4       1.0  0.38500  0.80000  0.23500  1.0000
  V   V1        1.0  0.09400  0.09400  0.75000  1.0000
  V   V2        1.0  0.90600  0.90600  0.25000  1.0000
