data_image0
_chemical_formula_structural       Mn16Si28
_chemical_formula_sum              "Mn16 Si28"
_cell_length_a       5.4768
_cell_length_b       5.4768
_cell_length_c       17.2775
_cell_angle_alpha    90
_cell_angle_beta     90
_cell_angle_gamma    90

_space_group_name_H-M_alt    "P 1"
_space_group_IT_number       1

loop_
  _space_group_symop_operation_xyz
  'x, y, z'

loop_
  _atom_site_type_symbol
  _atom_site_label
  _atom_site_symmetry_multiplicity
  _atom_site_fract_x
  _atom_site_fract_y
  _atom_site_fract_z
  _atom_site_occupancy
  Mn  Mn1       1.0  0.00000  0.00000  0.25000  1.0000
  Mn  Mn2       1.0  0.00000  0.00000  0.75000  1.0000
  Mn  Mn3       1.0  0.00000  0.00000  0.00000  1.0000
  Mn  Mn4       1.0  0.00000  0.00000  0.50000  1.0000
  Mn  Mn5       1.0  0.50000  0.50000  0.13000  1.0000
  Mn  Mn6       1.0  0.50000  0.50000  0.37000  1.0000
  Mn  Mn7       1.0  0.50000  0.50000  0.63000  1.0000
  Mn  Mn8       1.0  0.50000  0.50000  0.87000  1.0000
  Mn  Mn9       1.0  0.00000  0.50000  0.06510  1.0000
  Mn  Mn10      1.0  0.50000  0.00000  0.43500  1.0000
  Mn  Mn11      1.0  0.00000  0.50000  0.56500  1.0000
  Mn  Mn12      1.0  0.50000  0.00000  0.93500  1.0000
  Mn  Mn13      1.0  0.00000  0.50000  0.30900  1.0000
  Mn  Mn14      1.0  0.50000  0.00000  0.19100  1.0000
  Mn  Mn15      1.0  0.00000  0.50000  0.80900  1.0000
  Mn  Mn16      1.0  0.50000  0.00000  0.69100  1.0000
  Si  Si1       1.0  0.15900  0.67900  0.18200  1.0000
  Si  Si2       1.0  0.84100  0.32100  0.18200  1.0000
  Si  Si3       1.0  0.32100  0.84100  0.31800  1.0000
  Si  Si4       1.0  0.67900  0.15900  0.31800  1.0000
  Si  Si5       1.0  0.84100  0.67900  0.68200  1.0000
  Si  Si6       1.0  0.15900  0.32100  0.68200  1.0000
  Si  Si7       1.0  0.32100  0.15900  0.81800  1.0000
  Si  Si8       1.0  0.67900  0.84100  0.81800  1.0000
  Si  Si9       1.0  0.19900  0.15500  0.11300  1.0000
  Si  Si10      1.0  0.80100  0.84500  0.11300  1.0000
  Si  Si11      1.0  0.84500  0.80100  0.38700  1.0000
  Si  Si12      1.0  0.15500  0.19900  0.38700  1.0000
  Si  Si13      1.0  0.80100  0.15500  0.61300  1.0000
  Si  Si14      1.0  0.19900  0.84500  0.61300  1.0000
  Si  Si15      1.0  0.84500  0.19900  0.88700  1.0000
  Si  Si16      1.0  0.15500  0.80100  0.88700  1.0000
  Si  Si17      1.0  0.34700  0.77000  0.03900  1.0000
  Si  Si18      1.0  0.65300  0.23000  0.03900  1.0000
  Si  Si19      1.0  0.23000  0.65300  0.46100  1.0000
  Si  Si20      1.0  0.77000  0.34700  0.46100  1.0000
  Si  Si21      1.0  0.65300  0.77000  0.53900  1.0000
  Si  Si22      1.0  0.34700  0.23000  0.53900  1.0000
  Si  Si23      1.0  0.23000  0.34700  0.96100  1.0000
  Si  Si24      1.0  0.77000  0.65300  0.96100  1.0000
  Si  Si25      1.0  0.33300  0.33300  0.25000  1.0000
  Si  Si26      1.0  0.66700  0.66700  0.25000  1.0000
  Si  Si27      1.0  0.66700  0.33300  0.75000  1.0000
  Si  Si28      1.0  0.33300  0.66700  0.75000  1.0000
