data_image0
_chemical_formula_structural       Ba2O20Pr4Ti6
_chemical_formula_sum              "Ba2 O20 Pr4 Ti6"
_cell_length_a       13.9887
_cell_length_b       13.9887
_cell_length_c       7.6437
_cell_angle_alpha    90
_cell_angle_beta     90
_cell_angle_gamma    15.9875

_space_group_name_H-M_alt    "P 1"
_space_group_IT_number       1

loop_
  _space_group_symop_operation_xyz
  'x, y, z'

loop_
  _atom_site_type_symbol
  _atom_site_label
  _atom_site_symmetry_multiplicity
  _atom_site_fract_x
  _atom_site_fract_y
  _atom_site_fract_z
  _atom_site_occupancy
  Ba  Ba1       1.0  0.74300  0.74300  0.75000  1.0000
  Ba  Ba2       1.0  0.25700  0.25700  0.25000  1.0000
  O   O1        1.0  0.50000  0.50000  0.00000  1.0000
  O   O2        1.0  0.50000  0.50000  0.50000  1.0000
  O   O3        1.0  0.01590  0.01590  0.75000  1.0000
  O   O4        1.0  0.98400  0.98400  0.25000  1.0000
  O   O5        1.0  0.12400  0.12400  0.75000  1.0000
  O   O6        1.0  0.87600  0.87600  0.25000  1.0000
  O   O7        1.0  0.85100  0.85100  0.75000  1.0000
  O   O8        1.0  0.14900  0.14900  0.25000  1.0000
  O   O9        1.0  0.06820  0.06820  0.44900  1.0000
  O   O10       1.0  0.93200  0.93200  0.94900  1.0000
  O   O11       1.0  0.93200  0.93200  0.55100  1.0000
  O   O12       1.0  0.06820  0.06820  0.05070  1.0000
  O   O13       1.0  0.21000  0.21000  0.55000  1.0000
  O   O14       1.0  0.79000  0.79000  0.04980  1.0000
  O   O15       1.0  0.79000  0.79000  0.45000  1.0000
  O   O16       1.0  0.21000  0.21000  0.95000  1.0000
  O   O17       1.0  0.63300  0.63300  0.50700  1.0000
  O   O18       1.0  0.36700  0.36700  0.00746  1.0000
  O   O19       1.0  0.36700  0.36700  0.49300  1.0000
  O   O20       1.0  0.63300  0.63300  0.99300  1.0000
  Pr  Pr1       1.0  0.42700  0.42700  0.25000  1.0000
  Pr  Pr2       1.0  0.57300  0.57300  0.75000  1.0000
  Pr  Pr3       1.0  0.41900  0.41900  0.75000  1.0000
  Pr  Pr4       1.0  0.58100  0.58100  0.25000  1.0000
  Ti  Ti1       1.0  0.85200  0.85200  0.00555  1.0000
  Ti  Ti2       1.0  0.14800  0.14800  0.50600  1.0000
  Ti  Ti3       1.0  0.85200  0.85200  0.49400  1.0000
  Ti  Ti4       1.0  0.14800  0.14800  0.99400  1.0000
  Ti  Ti5       1.0  0.00000  0.00000  0.00000  1.0000
  Ti  Ti6       1.0  0.00000  0.00000  0.50000  1.0000
