data_image0
_chemical_formula_structural       Al4Ni8Zr16
_chemical_formula_sum              "Al4 Ni8 Zr16"
_cell_length_a       9.22188
_cell_length_b       9.22188
_cell_length_c       9.22188
_cell_angle_alpha    60
_cell_angle_beta     60
_cell_angle_gamma    60

_space_group_name_H-M_alt    "P 1"
_space_group_IT_number       1

loop_
  _space_group_symop_operation_xyz
  'x, y, z'

loop_
  _atom_site_type_symbol
  _atom_site_label
  _atom_site_symmetry_multiplicity
  _atom_site_fract_x
  _atom_site_fract_y
  _atom_site_fract_z
  _atom_site_occupancy
  Al  Al1       1.0  0.62500  0.12500  0.62500  1.0000
  Al  Al2       1.0  0.12500  0.62500  0.62500  1.0000
  Al  Al3       1.0  0.62500  0.62500  0.12500  1.0000
  Al  Al4       1.0  0.62500  0.62500  0.62500  1.0000
  Ni  Ni1       1.0  0.01880  0.32700  0.32700  1.0000
  Ni  Ni2       1.0  0.32700  0.01880  0.32700  1.0000
  Ni  Ni3       1.0  0.32700  0.32700  0.01880  1.0000
  Ni  Ni4       1.0  0.32700  0.32700  0.32700  1.0000
  Ni  Ni5       1.0  0.92300  0.23100  0.92300  1.0000
  Ni  Ni6       1.0  0.23100  0.92300  0.92300  1.0000
  Ni  Ni7       1.0  0.92300  0.92300  0.23100  1.0000
  Ni  Ni8       1.0  0.92300  0.92300  0.92300  1.0000
  Zr  Zr1       1.0  0.12500  0.62500  0.12500  1.0000
  Zr  Zr2       1.0  0.62500  0.12500  0.12500  1.0000
  Zr  Zr3       1.0  0.12500  0.12500  0.62500  1.0000
  Zr  Zr4       1.0  0.12500  0.12500  0.12500  1.0000
  Zr  Zr5       1.0  0.52500  0.52500  0.97500  1.0000
  Zr  Zr6       1.0  0.97500  0.52500  0.52500  1.0000
  Zr  Zr7       1.0  0.97500  0.97500  0.52500  1.0000
  Zr  Zr8       1.0  0.52500  0.97500  0.97500  1.0000
  Zr  Zr9       1.0  0.52500  0.97500  0.52500  1.0000
  Zr  Zr10      1.0  0.97500  0.52500  0.97500  1.0000
  Zr  Zr11      1.0  0.72500  0.72500  0.27500  1.0000
  Zr  Zr12      1.0  0.72500  0.27500  0.72500  1.0000
  Zr  Zr13      1.0  0.27500  0.27500  0.72500  1.0000
  Zr  Zr14      1.0  0.27500  0.72500  0.27500  1.0000
  Zr  Zr15      1.0  0.27500  0.72500  0.72500  1.0000
  Zr  Zr16      1.0  0.72500  0.27500  0.27500  1.0000
