data_image0
_chemical_formula_structural       Mo6Sb14
_chemical_formula_sum              "Mo6 Sb14"
_cell_length_a       8.35584
_cell_length_b       8.35584
_cell_length_c       8.35584
_cell_angle_alpha    109.468
_cell_angle_beta     109.468
_cell_angle_gamma    109.477

_space_group_name_H-M_alt    "P 1"
_space_group_IT_number       1

loop_
  _space_group_symop_operation_xyz
  'x, y, z'

loop_
  _atom_site_type_symbol
  _atom_site_label
  _atom_site_symmetry_multiplicity
  _atom_site_fract_x
  _atom_site_fract_y
  _atom_site_fract_z
  _atom_site_occupancy
  Mo  Mo1       1.0  0.34300  0.00000  0.34300  1.0000
  Mo  Mo2       1.0  0.65700  0.00000  0.65700  1.0000
  Mo  Mo3       1.0  0.00000  0.65700  0.65700  1.0000
  Mo  Mo4       1.0  0.00000  0.34300  0.34300  1.0000
  Mo  Mo5       1.0  0.65700  0.65700  0.00000  1.0000
  Mo  Mo6       1.0  0.34300  0.34300  0.00000  1.0000
  Sb  Sb1       1.0  0.32300  0.00004  0.00000  1.0000
  Sb  Sb2       1.0  0.00004  0.32300  0.00000  1.0000
  Sb  Sb3       1.0  0.00000  0.00000  0.32300  1.0000
  Sb  Sb4       1.0  0.67700  0.67700  0.67700  1.0000
  Sb  Sb5       1.0  0.00000  0.67700  0.00000  1.0000
  Sb  Sb6       1.0  0.67700  0.00000  0.00000  1.0000
  Sb  Sb7       1.0  0.00004  0.00004  0.67700  1.0000
  Sb  Sb8       1.0  0.32300  0.32300  0.32300  1.0000
  Sb  Sb9       1.0  0.25000  0.75000  0.50000  1.0000
  Sb  Sb10      1.0  0.75000  0.25000  0.50000  1.0000
  Sb  Sb11      1.0  0.25000  0.50000  0.75000  1.0000
  Sb  Sb12      1.0  0.75000  0.50000  0.25000  1.0000
  Sb  Sb13      1.0  0.50000  0.75000  0.25000  1.0000
  Sb  Sb14      1.0  0.50000  0.25000  0.75000  1.0000
