data_image0
_chemical_formula_structural       Ba2La4O20Ti6
_chemical_formula_sum              "Ba2 La4 O20 Ti6"
_cell_length_a       13.9533
_cell_length_b       13.9533
_cell_length_c       7.66446
_cell_angle_alpha    90
_cell_angle_beta     90
_cell_angle_gamma    16.1106

_space_group_name_H-M_alt    "P 1"
_space_group_IT_number       1

loop_
  _space_group_symop_operation_xyz
  'x, y, z'

loop_
  _atom_site_type_symbol
  _atom_site_label
  _atom_site_symmetry_multiplicity
  _atom_site_fract_x
  _atom_site_fract_y
  _atom_site_fract_z
  _atom_site_occupancy
  Ba  Ba1       1.0  0.74300  0.74300  0.75000  1.0000
  Ba  Ba2       1.0  0.25700  0.25700  0.25000  1.0000
  La  La1       1.0  0.41900  0.41900  0.75000  1.0000
  La  La2       1.0  0.58100  0.58100  0.25000  1.0000
  La  La3       1.0  0.57400  0.57400  0.75000  1.0000
  La  La4       1.0  0.42600  0.42600  0.25000  1.0000
  O   O1        1.0  0.50000  0.50000  0.50000  1.0000
  O   O2        1.0  0.50000  0.50000  0.00000  1.0000
  O   O3        1.0  0.12500  0.12500  0.75000  1.0000
  O   O4        1.0  0.87500  0.87500  0.25000  1.0000
  O   O5        1.0  0.85000  0.85000  0.75000  1.0000
  O   O6        1.0  0.15000  0.15000  0.25000  1.0000
  O   O7        1.0  0.06870  0.06870  0.45200  1.0000
  O   O8        1.0  0.93100  0.93100  0.95200  1.0000
  O   O9        1.0  0.93100  0.93100  0.54800  1.0000
  O   O10       1.0  0.06870  0.06870  0.04810  1.0000
  O   O11       1.0  0.21200  0.21200  0.55100  1.0000
  O   O12       1.0  0.78800  0.78800  0.05090  1.0000
  O   O13       1.0  0.78800  0.78800  0.44900  1.0000
  O   O14       1.0  0.21200  0.21200  0.94900  1.0000
  O   O15       1.0  0.63500  0.63500  0.50700  1.0000
  O   O16       1.0  0.36500  0.36500  0.00655  1.0000
  O   O17       1.0  0.36500  0.36500  0.49300  1.0000
  O   O18       1.0  0.63500  0.63500  0.99300  1.0000
  O   O19       1.0  0.01500  0.01500  0.75000  1.0000
  O   O20       1.0  0.98500  0.98500  0.25000  1.0000
  Ti  Ti1       1.0  0.14900  0.14900  0.50500  1.0000
  Ti  Ti2       1.0  0.85100  0.85100  0.00488  1.0000
  Ti  Ti3       1.0  0.85100  0.85100  0.49500  1.0000
  Ti  Ti4       1.0  0.14900  0.14900  0.99500  1.0000
  Ti  Ti5       1.0  0.00000  0.00000  0.50000  1.0000
  Ti  Ti6       1.0  0.00000  0.00000  0.00000  1.0000
