data_image0
_chemical_formula_structural       F6KOs
_chemical_formula_sum              "F6 K1 Os1"
_cell_length_a       4.69286
_cell_length_b       4.69282
_cell_length_c       4.69277
_cell_angle_alpha    97.6771
_cell_angle_beta     97.6783
_cell_angle_gamma    97.6753

_space_group_name_H-M_alt    "P 1"
_space_group_IT_number       1

loop_
  _space_group_symop_operation_xyz
  'x, y, z'

loop_
  _atom_site_type_symbol
  _atom_site_label
  _atom_site_symmetry_multiplicity
  _atom_site_fract_x
  _atom_site_fract_y
  _atom_site_fract_z
  _atom_site_occupancy
  F   F1        1.0  0.65400  0.78100  0.07400  1.0000
  F   F2        1.0  0.92600  0.34600  0.21900  1.0000
  F   F3        1.0  0.21900  0.92600  0.34600  1.0000
  F   F4        1.0  0.78100  0.07400  0.65400  1.0000
  F   F5        1.0  0.07400  0.65400  0.78100  1.0000
  F   F6        1.0  0.34600  0.21900  0.92600  1.0000
  K   K1        1.0  0.50000  0.50000  0.50000  1.0000
  Os  Os1       1.0  0.00000  0.00000  0.00000  1.0000
