data_image0
_chemical_formula_structural       Cl16Re4S4Te4
_chemical_formula_sum              "Cl16 Re4 S4 Te4"
_cell_length_a       9.96221
_cell_length_b       9.96221
_cell_length_c       9.96221
_cell_angle_alpha    115.168
_cell_angle_beta     115.168
_cell_angle_gamma    98.5952

_space_group_name_H-M_alt    "P 1"
_space_group_IT_number       1

loop_
  _space_group_symop_operation_xyz
  'x, y, z'

loop_
  _atom_site_type_symbol
  _atom_site_label
  _atom_site_symmetry_multiplicity
  _atom_site_fract_x
  _atom_site_fract_y
  _atom_site_fract_z
  _atom_site_occupancy
  Cl  Cl1       1.0  0.86700  0.30100  0.80700  1.0000
  Cl  Cl2       1.0  0.49500  0.05970  0.19300  1.0000
  Cl  Cl3       1.0  0.94000  0.13300  0.43500  1.0000
  Cl  Cl4       1.0  0.69900  0.50500  0.56500  1.0000
  Cl  Cl5       1.0  0.90900  0.71100  0.09190  1.0000
  Cl  Cl6       1.0  0.61900  0.81700  0.90800  1.0000
  Cl  Cl7       1.0  0.18300  0.09060  0.80100  1.0000
  Cl  Cl8       1.0  0.28900  0.38100  0.19900  1.0000
  Cl  Cl9       1.0  0.93000  0.66100  0.39800  1.0000
  Cl  Cl10      1.0  0.26300  0.53200  0.60200  1.0000
  Cl  Cl11      1.0  0.46800  0.07030  0.73100  1.0000
  Cl  Cl12      1.0  0.33900  0.73700  0.26900  1.0000
  Cl  Cl13      1.0  0.88000  0.20800  0.11800  1.0000
  Cl  Cl14      1.0  0.09020  0.76200  0.88200  1.0000
  Cl  Cl15      1.0  0.23800  0.12000  0.32800  1.0000
  Cl  Cl16      1.0  0.79200  0.91000  0.67200  1.0000
  Re  Re1       1.0  0.70000  0.54900  0.09630  1.0000
  Re  Re2       1.0  0.45300  0.60300  0.90400  1.0000
  Re  Re3       1.0  0.39700  0.30000  0.84900  1.0000
  Re  Re4       1.0  0.45100  0.54700  0.15100  1.0000
  S   S1        1.0  0.56000  0.42400  0.78900  1.0000
  S   S2        1.0  0.63500  0.77000  0.21100  1.0000
  S   S3        1.0  0.23000  0.44000  0.86400  1.0000
  S   S4        1.0  0.57600  0.36500  0.13600  1.0000
  Te  Te1       1.0  0.93900  0.44000  0.10600  1.0000
  Te  Te2       1.0  0.33400  0.83200  0.89400  1.0000
  Te  Te3       1.0  0.16800  0.06150  0.50200  1.0000
  Te  Te4       1.0  0.56000  0.66600  0.49800  1.0000
