data_image0
_chemical_formula_structural       Cl16Re4Te8
_chemical_formula_sum              "Cl16 Re4 Te8"
_cell_length_a       10.4319
_cell_length_b       10.4319
_cell_length_c       10.4319
_cell_angle_alpha    116.799
_cell_angle_beta     116.799
_cell_angle_gamma    95.6391

_space_group_name_H-M_alt    "P 1"
_space_group_IT_number       1

loop_
  _space_group_symop_operation_xyz
  'x, y, z'

loop_
  _atom_site_type_symbol
  _atom_site_label
  _atom_site_symmetry_multiplicity
  _atom_site_fract_x
  _atom_site_fract_y
  _atom_site_fract_z
  _atom_site_occupancy
  Cl  Cl1       1.0  0.17300  0.93300  0.43500  1.0000
  Cl  Cl2       1.0  0.49800  0.73900  0.56500  1.0000
  Cl  Cl3       1.0  0.26100  0.82700  0.76000  1.0000
  Cl  Cl4       1.0  0.06730  0.50200  0.24000  1.0000
  Cl  Cl5       1.0  0.10500  0.18300  0.79100  1.0000
  Cl  Cl6       1.0  0.39200  0.31400  0.20900  1.0000
  Cl  Cl7       1.0  0.68600  0.89500  0.07830  1.0000
  Cl  Cl8       1.0  0.81700  0.60800  0.92200  1.0000
  Cl  Cl9       1.0  0.06520  0.42800  0.68600  1.0000
  Cl  Cl10      1.0  0.74200  0.38000  0.31400  1.0000
  Cl  Cl11      1.0  0.62000  0.93500  0.36300  1.0000
  Cl  Cl12      1.0  0.57200  0.25800  0.63700  1.0000
  Cl  Cl13      1.0  0.12900  0.20700  0.32200  1.0000
  Cl  Cl14      1.0  0.88500  0.80700  0.67800  1.0000
  Cl  Cl15      1.0  0.19300  0.87100  0.07740  1.0000
  Cl  Cl16      1.0  0.79300  0.11500  0.92300  1.0000
  Re  Re1       1.0  0.30600  0.38600  0.84000  1.0000
  Re  Re2       1.0  0.54600  0.46700  0.16000  1.0000
  Re  Re3       1.0  0.53300  0.69400  0.07960  1.0000
  Re  Re4       1.0  0.61400  0.45400  0.92000  1.0000
  Te  Te1       1.0  0.08930  0.14900  0.50200  1.0000
  Te  Te2       1.0  0.64800  0.58800  0.49800  1.0000
  Te  Te3       1.0  0.41200  0.91100  0.06000  1.0000
  Te  Te4       1.0  0.85100  0.35200  0.94000  1.0000
  Te  Te5       1.0  0.33200  0.58900  0.12700  1.0000
  Te  Te6       1.0  0.46100  0.20400  0.87300  1.0000
  Te  Te7       1.0  0.79600  0.66800  0.25700  1.0000
  Te  Te8       1.0  0.41100  0.53900  0.74300  1.0000
