data_image0
_chemical_formula_structural       Ge4Mn8Te16
_chemical_formula_sum              "Ge4 Mn8 Te16"
_cell_length_a       13.7053
_cell_length_b       8.05862
_cell_length_c       7.02409
_cell_angle_alpha    90
_cell_angle_beta     90
_cell_angle_gamma    90

_space_group_name_H-M_alt    "P 1"
_space_group_IT_number       1

loop_
  _space_group_symop_operation_xyz
  'x, y, z'

loop_
  _atom_site_type_symbol
  _atom_site_label
  _atom_site_symmetry_multiplicity
  _atom_site_fract_x
  _atom_site_fract_y
  _atom_site_fract_z
  _atom_site_occupancy
  Ge  Ge1       1.0  0.59900  0.75000  0.90700  1.0000
  Ge  Ge2       1.0  0.90100  0.25000  0.40700  1.0000
  Ge  Ge3       1.0  0.09910  0.75000  0.59300  1.0000
  Ge  Ge4       1.0  0.40100  0.25000  0.09280  1.0000
  Mn  Mn1       1.0  0.76600  0.75000  0.49700  1.0000
  Mn  Mn2       1.0  0.73400  0.25000  0.99700  1.0000
  Mn  Mn3       1.0  0.26600  0.75000  0.00274  1.0000
  Mn  Mn4       1.0  0.23400  0.25000  0.50300  1.0000
  Mn  Mn5       1.0  0.00000  0.50000  0.00000  1.0000
  Mn  Mn6       1.0  0.50000  0.50000  0.50000  1.0000
  Mn  Mn7       1.0  0.50000  0.00000  0.50000  1.0000
  Mn  Mn8       1.0  0.00000  0.00000  0.00000  1.0000
  Te  Te1       1.0  0.42000  0.75000  0.74100  1.0000
  Te  Te2       1.0  0.08040  0.25000  0.24100  1.0000
  Te  Te3       1.0  0.92000  0.75000  0.75900  1.0000
  Te  Te4       1.0  0.58000  0.25000  0.25900  1.0000
  Te  Te5       1.0  0.58700  0.75000  0.31100  1.0000
  Te  Te6       1.0  0.91300  0.25000  0.81100  1.0000
  Te  Te7       1.0  0.08720  0.75000  0.18900  1.0000
  Te  Te8       1.0  0.41300  0.25000  0.68900  1.0000
  Te  Te9       1.0  0.32800  0.51600  0.29300  1.0000
  Te  Te10      1.0  0.17200  0.48400  0.79300  1.0000
  Te  Te11      1.0  0.82800  0.98400  0.20700  1.0000
  Te  Te12      1.0  0.67200  0.01560  0.70700  1.0000
  Te  Te13      1.0  0.67200  0.48400  0.70700  1.0000
  Te  Te14      1.0  0.82800  0.51600  0.20700  1.0000
  Te  Te15      1.0  0.17200  0.01560  0.79300  1.0000
  Te  Te16      1.0  0.32800  0.98400  0.29300  1.0000
