data_image0
_chemical_formula_structural       Al16Ca8H64
_chemical_formula_sum              "Al16 Ca8 H64"
_cell_length_a       12.6379
_cell_length_b       9.17056
_cell_length_c       8.5653
_cell_angle_alpha    90
_cell_angle_beta     90
_cell_angle_gamma    90

_space_group_name_H-M_alt    "P 1"
_space_group_IT_number       1

loop_
  _space_group_symop_operation_xyz
  'x, y, z'

loop_
  _atom_site_type_symbol
  _atom_site_label
  _atom_site_symmetry_multiplicity
  _atom_site_fract_x
  _atom_site_fract_y
  _atom_site_fract_z
  _atom_site_occupancy
  Al  Al1       1.0  0.42700  0.72900  0.50100  1.0000
  Al  Al2       1.0  0.07300  0.27100  0.00072  1.0000
  Al  Al3       1.0  0.92700  0.77100  0.49900  1.0000
  Al  Al4       1.0  0.57300  0.22900  0.99900  1.0000
  Al  Al5       1.0  0.57300  0.27100  0.49900  1.0000
  Al  Al6       1.0  0.92700  0.72900  0.99900  1.0000
  Al  Al7       1.0  0.07300  0.22900  0.50100  1.0000
  Al  Al8       1.0  0.42700  0.77100  0.00072  1.0000
  Al  Al9       1.0  0.84600  0.39000  0.69500  1.0000
  Al  Al10      1.0  0.65400  0.61000  0.19500  1.0000
  Al  Al11      1.0  0.34600  0.11000  0.30500  1.0000
  Al  Al12      1.0  0.15400  0.89000  0.80500  1.0000
  Al  Al13      1.0  0.34600  0.39000  0.80500  1.0000
  Al  Al14      1.0  0.65400  0.89000  0.69500  1.0000
  Al  Al15      1.0  0.84600  0.11000  0.19500  1.0000
  Al  Al16      1.0  0.15400  0.61000  0.30500  1.0000
  Ca  Ca1       1.0  0.89500  0.03610  0.78000  1.0000
  Ca  Ca2       1.0  0.60500  0.96400  0.28000  1.0000
  Ca  Ca3       1.0  0.39500  0.46400  0.22000  1.0000
  Ca  Ca4       1.0  0.10500  0.53600  0.72000  1.0000
  Ca  Ca5       1.0  0.10500  0.96400  0.22000  1.0000
  Ca  Ca6       1.0  0.39500  0.03610  0.72000  1.0000
  Ca  Ca7       1.0  0.60500  0.53600  0.78000  1.0000
  Ca  Ca8       1.0  0.89500  0.46400  0.28000  1.0000
  H   H1        1.0  0.35700  0.81000  0.63300  1.0000
  H   H2        1.0  0.14300  0.19000  0.13300  1.0000
  H   H3        1.0  0.85700  0.69000  0.36700  1.0000
  H   H4        1.0  0.64300  0.31000  0.86700  1.0000
  H   H5        1.0  0.64300  0.19000  0.36700  1.0000
  H   H6        1.0  0.85700  0.81000  0.86700  1.0000
  H   H7        1.0  0.14300  0.31000  0.63300  1.0000
  H   H8        1.0  0.35700  0.69000  0.13300  1.0000
  H   H9        1.0  0.46200  0.86300  0.38600  1.0000
  H   H10       1.0  0.03760  0.13700  0.88600  1.0000
  H   H11       1.0  0.96200  0.63700  0.61400  1.0000
  H   H12       1.0  0.53800  0.36300  0.11400  1.0000
  H   H13       1.0  0.53800  0.13700  0.61400  1.0000
  H   H14       1.0  0.96200  0.86300  0.11400  1.0000
  H   H15       1.0  0.03760  0.36300  0.38600  1.0000
  H   H16       1.0  0.46200  0.63700  0.88600  1.0000
  H   H17       1.0  0.53100  0.64800  0.57200  1.0000
  H   H18       1.0  0.96900  0.35200  0.07160  1.0000
  H   H19       1.0  0.03120  0.85200  0.42800  1.0000
  H   H20       1.0  0.46900  0.14800  0.92800  1.0000
  H   H21       1.0  0.46900  0.35200  0.42800  1.0000
  H   H22       1.0  0.03120  0.64800  0.92800  1.0000
  H   H23       1.0  0.96900  0.14800  0.57200  1.0000
  H   H24       1.0  0.53100  0.85200  0.07160  1.0000
  H   H25       1.0  0.35100  0.61300  0.41100  1.0000
  H   H26       1.0  0.14900  0.38700  0.91100  1.0000
  H   H27       1.0  0.85100  0.88700  0.58900  1.0000
  H   H28       1.0  0.64900  0.11300  0.08880  1.0000
  H   H29       1.0  0.64900  0.38700  0.58900  1.0000
  H   H30       1.0  0.85100  0.61300  0.08880  1.0000
  H   H31       1.0  0.14900  0.11300  0.41100  1.0000
  H   H32       1.0  0.35100  0.88700  0.91100  1.0000
  H   H33       1.0  0.96800  0.39000  0.76100  1.0000
  H   H34       1.0  0.53200  0.61000  0.26100  1.0000
  H   H35       1.0  0.46800  0.11000  0.23900  1.0000
  H   H36       1.0  0.03210  0.89000  0.73900  1.0000
  H   H37       1.0  0.03210  0.61000  0.23900  1.0000
  H   H38       1.0  0.46800  0.39000  0.73900  1.0000
  H   H39       1.0  0.53200  0.89000  0.76100  1.0000
  H   H40       1.0  0.96800  0.11000  0.26100  1.0000
  H   H41       1.0  0.80100  0.22900  0.73400  1.0000
  H   H42       1.0  0.69900  0.77100  0.23400  1.0000
  H   H43       1.0  0.30100  0.27100  0.26600  1.0000
  H   H44       1.0  0.19900  0.72900  0.76600  1.0000
  H   H45       1.0  0.19900  0.77100  0.26600  1.0000
  H   H46       1.0  0.30100  0.22900  0.76600  1.0000
  H   H47       1.0  0.69900  0.72900  0.73400  1.0000
  H   H48       1.0  0.80100  0.27100  0.23400  1.0000
  H   H49       1.0  0.78200  0.51600  0.78800  1.0000
  H   H50       1.0  0.71800  0.48400  0.28800  1.0000
  H   H51       1.0  0.28200  0.98400  0.21200  1.0000
  H   H52       1.0  0.21800  0.01600  0.71200  1.0000
  H   H53       1.0  0.21800  0.48400  0.21200  1.0000
  H   H54       1.0  0.28200  0.51600  0.71200  1.0000
  H   H55       1.0  0.71800  0.01600  0.78800  1.0000
  H   H56       1.0  0.78200  0.98400  0.28800  1.0000
  H   H57       1.0  0.84100  0.41300  0.51000  1.0000
  H   H58       1.0  0.65900  0.58700  0.00994  1.0000
  H   H59       1.0  0.34100  0.08710  0.49000  1.0000
  H   H60       1.0  0.15900  0.91300  0.99000  1.0000
  H   H61       1.0  0.15900  0.58700  0.49000  1.0000
  H   H62       1.0  0.34100  0.41300  0.99000  1.0000
  H   H63       1.0  0.65900  0.91300  0.51000  1.0000
  H   H64       1.0  0.84100  0.08710  0.00994  1.0000
