data_image0
_chemical_formula_structural       B8H32Na2Sc2
_chemical_formula_sum              "B8 H32 Na2 Sc2"
_cell_length_a       6.86902
_cell_length_b       6.86902
_cell_length_c       8.33928
_cell_angle_alpha    90
_cell_angle_beta     90
_cell_angle_gamma    69.4535

_space_group_name_H-M_alt    "P 1"
_space_group_IT_number       1

loop_
  _space_group_symop_operation_xyz
  'x, y, z'

loop_
  _atom_site_type_symbol
  _atom_site_label
  _atom_site_symmetry_multiplicity
  _atom_site_fract_x
  _atom_site_fract_y
  _atom_site_fract_z
  _atom_site_occupancy
  B   B1        1.0  0.75500  0.75500  0.97800  1.0000
  B   B2        1.0  0.24500  0.24500  0.47800  1.0000
  B   B3        1.0  0.24500  0.24500  0.02250  1.0000
  B   B4        1.0  0.75500  0.75500  0.52200  1.0000
  B   B5        1.0  0.75800  0.28400  0.75000  1.0000
  B   B6        1.0  0.24200  0.71600  0.25000  1.0000
  B   B7        1.0  0.71600  0.24200  0.25000  1.0000
  B   B8        1.0  0.28400  0.75800  0.75000  1.0000
  H   H1        1.0  0.64800  0.64800  0.00817  1.0000
  H   H2        1.0  0.35200  0.35200  0.50800  1.0000
  H   H3        1.0  0.35200  0.35200  0.99200  1.0000
  H   H4        1.0  0.64800  0.64800  0.49200  1.0000
  H   H5        1.0  0.90200  0.64700  0.89300  1.0000
  H   H6        1.0  0.09820  0.35300  0.39300  1.0000
  H   H7        1.0  0.35300  0.09820  0.10700  1.0000
  H   H8        1.0  0.64700  0.90200  0.60700  1.0000
  H   H9        1.0  0.09820  0.35300  0.10700  1.0000
  H   H10       1.0  0.90200  0.64700  0.60700  1.0000
  H   H11       1.0  0.64700  0.90200  0.89300  1.0000
  H   H12       1.0  0.35300  0.09820  0.39300  1.0000
  H   H13       1.0  0.81100  0.81100  0.10000  1.0000
  H   H14       1.0  0.18900  0.18900  0.60000  1.0000
  H   H15       1.0  0.18900  0.18900  0.90000  1.0000
  H   H16       1.0  0.81100  0.81100  0.40000  1.0000
  H   H17       1.0  0.65000  0.35400  0.86900  1.0000
  H   H18       1.0  0.35000  0.64600  0.36900  1.0000
  H   H19       1.0  0.64600  0.35000  0.13100  1.0000
  H   H20       1.0  0.35400  0.65000  0.63100  1.0000
  H   H21       1.0  0.35000  0.64600  0.13100  1.0000
  H   H22       1.0  0.65000  0.35400  0.63100  1.0000
  H   H23       1.0  0.35400  0.65000  0.86900  1.0000
  H   H24       1.0  0.64600  0.35000  0.36900  1.0000
  H   H25       1.0  0.82100  0.09660  0.75000  1.0000
  H   H26       1.0  0.17900  0.90300  0.25000  1.0000
  H   H27       1.0  0.90300  0.17900  0.25000  1.0000
  H   H28       1.0  0.09660  0.82100  0.75000  1.0000
  H   H29       1.0  0.90100  0.35400  0.75000  1.0000
  H   H30       1.0  0.09880  0.64600  0.25000  1.0000
  H   H31       1.0  0.64600  0.09880  0.25000  1.0000
  H   H32       1.0  0.35400  0.90100  0.75000  1.0000
  Na  Na1       1.0  0.00000  0.00000  0.50000  1.0000
  Na  Na2       1.0  0.00000  0.00000  0.00000  1.0000
  Sc  Sc1       1.0  0.64200  0.64200  0.75000  1.0000
  Sc  Sc2       1.0  0.35800  0.35800  0.25000  1.0000
