data_image0
_chemical_formula_structural       B48H132Li8N28
_chemical_formula_sum              "B48 H132 Li8 N28"
_cell_length_a       7.87105
_cell_length_b       13.9251
_cell_length_c       14.861
_cell_angle_alpha    90
_cell_angle_beta     98.8039
_cell_angle_gamma    90

_space_group_name_H-M_alt    "P 1"
_space_group_IT_number       1

loop_
  _space_group_symop_operation_xyz
  'x, y, z'

loop_
  _atom_site_type_symbol
  _atom_site_label
  _atom_site_symmetry_multiplicity
  _atom_site_fract_x
  _atom_site_fract_y
  _atom_site_fract_z
  _atom_site_occupancy
  B   B1        1.0  0.12800  0.25000  0.47500  1.0000
  B   B2        1.0  0.37200  0.75000  0.02470  1.0000
  B   B3        1.0  0.87200  0.75000  0.52500  1.0000
  B   B4        1.0  0.62800  0.25000  0.97500  1.0000
  B   B5        1.0  0.32600  0.18900  0.50000  1.0000
  B   B6        1.0  0.17400  0.68900  0.00000  1.0000
  B   B7        1.0  0.67400  0.81100  0.50000  1.0000
  B   B8        1.0  0.82600  0.31100  0.00006  1.0000
  B   B9        1.0  0.14300  0.14700  0.54500  1.0000
  B   B10       1.0  0.35700  0.64700  0.95500  1.0000
  B   B11       1.0  0.85700  0.85300  0.45500  1.0000
  B   B12       1.0  0.64300  0.35300  0.04470  1.0000
  B   B13       1.0  0.34200  0.35300  0.61700  1.0000
  B   B14       1.0  0.15800  0.85300  0.88300  1.0000
  B   B15       1.0  0.65800  0.64700  0.38300  1.0000
  B   B16       1.0  0.84200  0.14700  0.11700  1.0000
  B   B17       1.0  0.45900  0.25200  0.58800  1.0000
  B   B18       1.0  0.04110  0.75200  0.91200  1.0000
  B   B19       1.0  0.54100  0.74800  0.41200  1.0000
  B   B20       1.0  0.95900  0.24800  0.08770  1.0000
  B   B21       1.0  0.34800  0.14700  0.61400  1.0000
  B   B22       1.0  0.15200  0.64700  0.88600  1.0000
  B   B23       1.0  0.65200  0.85300  0.38600  1.0000
  B   B24       1.0  0.84800  0.35300  0.11400  1.0000
  B   B25       1.0  0.02750  0.24700  0.57500  1.0000
  B   B26       1.0  0.47300  0.74700  0.92500  1.0000
  B   B27       1.0  0.97300  0.75300  0.42500  1.0000
  B   B28       1.0  0.52700  0.25300  0.07480  1.0000
  B   B29       1.0  0.35900  0.24800  0.68600  1.0000
  B   B30       1.0  0.14100  0.74800  0.81400  1.0000
  B   B31       1.0  0.64100  0.75200  0.31400  1.0000
  B   B32       1.0  0.85900  0.25200  0.18600  1.0000
  B   B33       1.0  0.16400  0.18300  0.66000  1.0000
  B   B34       1.0  0.33600  0.68300  0.84000  1.0000
  B   B35       1.0  0.83600  0.81700  0.34000  1.0000
  B   B36       1.0  0.66400  0.31700  0.16000  1.0000
  B   B37       1.0  0.16000  0.31000  0.66200  1.0000
  B   B38       1.0  0.34000  0.81000  0.83800  1.0000
  B   B39       1.0  0.84000  0.69000  0.33800  1.0000
  B   B40       1.0  0.66000  0.19000  0.16200  1.0000
  B   B41       1.0  0.13800  0.35200  0.54800  1.0000
  B   B42       1.0  0.36200  0.85200  0.95200  1.0000
  B   B43       1.0  0.86200  0.64800  0.45200  1.0000
  B   B44       1.0  0.63800  0.14800  0.04800  1.0000
  B   B45       1.0  0.32300  0.31600  0.50200  1.0000
  B   B46       1.0  0.17700  0.81600  0.99800  1.0000
  B   B47       1.0  0.67700  0.68400  0.49800  1.0000
  B   B48       1.0  0.82300  0.18400  0.00218  1.0000
  H   H1        1.0  0.42200  0.07310  0.63700  1.0000
  H   H2        1.0  0.07840  0.57300  0.86300  1.0000
  H   H3        1.0  0.57800  0.92700  0.36300  1.0000
  H   H4        1.0  0.92200  0.42700  0.13700  1.0000
  H   H5        1.0  0.61200  0.25300  0.59200  1.0000
  H   H6        1.0  0.88800  0.75300  0.90800  1.0000
  H   H7        1.0  0.38800  0.74700  0.40800  1.0000
  H   H8        1.0  0.11200  0.24700  0.09190  1.0000
  H   H9        1.0  0.11100  0.13500  0.71700  1.0000
  H   H10       1.0  0.38900  0.63500  0.78300  1.0000
  H   H11       1.0  0.88900  0.86500  0.28300  1.0000
  H   H12       1.0  0.61100  0.36500  0.21700  1.0000
  H   H13       1.0  0.44100  0.24800  0.76100  1.0000
  H   H14       1.0  0.05910  0.74800  0.73900  1.0000
  H   H15       1.0  0.55900  0.75200  0.23900  1.0000
  H   H16       1.0  0.94100  0.25200  0.26100  1.0000
  H   H17       1.0  0.41100  0.42700  0.64200  1.0000
  H   H18       1.0  0.08870  0.92700  0.85800  1.0000
  H   H19       1.0  0.58900  0.57300  0.35800  1.0000
  H   H20       1.0  0.91100  0.07260  0.14200  1.0000
  H   H21       1.0  0.10300  0.35500  0.72000  1.0000
  H   H22       1.0  0.39700  0.85500  0.78000  1.0000
  H   H23       1.0  0.89700  0.64500  0.28000  1.0000
  H   H24       1.0  0.60300  0.14500  0.22000  1.0000
  H   H25       1.0  0.85200  0.08950  0.27800  1.0000
  H   H26       1.0  0.64800  0.59000  0.22200  1.0000
  H   H27       1.0  0.14800  0.91000  0.72200  1.0000
  H   H28       1.0  0.35200  0.41000  0.77800  1.0000
  H   H29       1.0  0.02880  0.06180  0.34600  1.0000
  H   H30       1.0  0.47100  0.56200  0.15400  1.0000
  H   H31       1.0  0.97100  0.93800  0.65400  1.0000
  H   H32       1.0  0.52900  0.43800  0.84600  1.0000
  H   H33       1.0  0.07170  0.07350  0.51900  1.0000
  H   H34       1.0  0.42800  0.57300  0.98100  1.0000
  H   H35       1.0  0.92800  0.92700  0.48100  1.0000
  H   H36       1.0  0.57200  0.42700  0.01930  1.0000
  H   H37       1.0  0.38800  0.14400  0.44400  1.0000
  H   H38       1.0  0.11200  0.64400  0.05620  1.0000
  H   H39       1.0  0.61200  0.85600  0.55600  1.0000
  H   H40       1.0  0.88800  0.35600  0.94400  1.0000
  H   H41       1.0  0.87400  0.24500  0.57100  1.0000
  H   H42       1.0  0.62600  0.74500  0.92900  1.0000
  H   H43       1.0  0.12600  0.75500  0.42900  1.0000
  H   H44       1.0  0.37400  0.25500  0.07110  1.0000
  H   H45       1.0  0.06270  0.42400  0.52400  1.0000
  H   H46       1.0  0.43700  0.92400  0.97600  1.0000
  H   H47       1.0  0.93700  0.57600  0.47600  1.0000
  H   H48       1.0  0.56300  0.07580  0.02430  1.0000
  H   H49       1.0  0.37900  0.36300  0.44700  1.0000
  H   H50       1.0  0.12100  0.86300  0.05330  1.0000
  H   H51       1.0  0.62100  0.63700  0.55300  1.0000
  H   H52       1.0  0.87900  0.13700  0.94700  1.0000
  H   H53       1.0  0.04630  0.25000  0.40000  1.0000
  H   H54       1.0  0.45400  0.75000  0.09980  1.0000
  H   H55       1.0  0.95400  0.75000  0.60000  1.0000
  H   H56       1.0  0.54600  0.25000  0.90000  1.0000
  H   H57       1.0  0.79400  0.05640  0.59300  1.0000
  H   H58       1.0  0.70600  0.55600  0.90700  1.0000
  H   H59       1.0  0.20600  0.94400  0.40700  1.0000
  H   H60       1.0  0.29400  0.44400  0.09320  1.0000
  H   H61       1.0  0.85600  0.99800  0.34800  1.0000
  H   H62       1.0  0.64400  0.49800  0.15200  1.0000
  H   H63       1.0  0.14400  0.00247  0.65200  1.0000
  H   H64       1.0  0.35600  0.50200  0.84800  1.0000
  H   H65       1.0  0.02080  0.60300  0.61800  1.0000
  H   H66       1.0  0.47900  0.10300  0.88200  1.0000
  H   H67       1.0  0.97900  0.39700  0.38200  1.0000
  H   H68       1.0  0.52100  0.89700  0.11800  1.0000
  H   H69       1.0  0.12500  0.50100  0.64300  1.0000
  H   H70       1.0  0.37500  0.00084  0.85700  1.0000
  H   H71       1.0  0.87500  0.49900  0.35700  1.0000
  H   H72       1.0  0.62500  0.99900  0.14300  1.0000
  H   H73       1.0  0.12000  0.58400  0.72200  1.0000
  H   H74       1.0  0.38000  0.08430  0.77800  1.0000
  H   H75       1.0  0.88000  0.41600  0.27800  1.0000
  H   H76       1.0  0.62000  0.91600  0.22200  1.0000
  H   H77       1.0  0.56300  0.26700  0.41900  1.0000
  H   H78       1.0  0.93700  0.76700  0.08080  1.0000
  H   H79       1.0  0.43700  0.73300  0.58100  1.0000
  H   H80       1.0  0.06280  0.23300  0.91900  1.0000
  H   H81       1.0  0.63400  0.24300  0.32300  1.0000
  H   H82       1.0  0.86600  0.74300  0.17700  1.0000
  H   H83       1.0  0.36600  0.75700  0.67700  1.0000
  H   H84       1.0  0.13400  0.25700  0.82300  1.0000
  H   H85       1.0  0.72200  0.32800  0.38900  1.0000
  H   H86       1.0  0.77800  0.82800  0.11100  1.0000
  H   H87       1.0  0.27800  0.67200  0.61100  1.0000
  H   H88       1.0  0.22200  0.17200  0.88900  1.0000
  H   H89       1.0  0.69400  0.99700  0.50600  1.0000
  H   H90       1.0  0.80600  0.49700  0.99400  1.0000
  H   H91       1.0  0.30600  0.00297  0.49400  1.0000
  H   H92       1.0  0.19400  0.50300  0.00601  1.0000
  H   H93       1.0  0.60100  0.08970  0.54700  1.0000
  H   H94       1.0  0.89900  0.59000  0.95300  1.0000
  H   H95       1.0  0.39900  0.91000  0.45300  1.0000
  H   H96       1.0  0.10100  0.41000  0.04700  1.0000
  H   H97       1.0  0.72800  0.67100  0.68400  1.0000
  H   H98       1.0  0.77200  0.17100  0.81600  1.0000
  H   H99       1.0  0.27200  0.32900  0.31600  1.0000
  H   H100      1.0  0.22800  0.82900  0.18400  1.0000
  H   H101      1.0  0.81000  0.65300  0.79000  1.0000
  H   H102      1.0  0.69000  0.15300  0.71000  1.0000
  H   H103      1.0  0.19000  0.34700  0.21000  1.0000
  H   H104      1.0  0.31000  0.84700  0.29000  1.0000
  H   H105      1.0  0.80200  0.39200  0.54400  1.0000
  H   H106      1.0  0.69800  0.89200  0.95600  1.0000
  H   H107      1.0  0.19800  0.60800  0.45600  1.0000
  H   H108      1.0  0.30200  0.10800  0.04390  1.0000
  H   H109      1.0  0.72500  0.49700  0.50500  1.0000
  H   H110      1.0  0.77500  0.99700  0.99500  1.0000
  H   H111      1.0  0.27500  0.50300  0.49500  1.0000
  H   H112      1.0  0.22500  0.00310  0.00536  1.0000
  H   H113      1.0  0.59800  0.41700  0.54400  1.0000
  H   H114      1.0  0.90200  0.91700  0.95600  1.0000
  H   H115      1.0  0.40200  0.58300  0.45600  1.0000
  H   H116      1.0  0.09850  0.08290  0.04390  1.0000
  H   H117      1.0  0.65300  0.34500  0.73700  1.0000
  H   H118      1.0  0.84700  0.84500  0.76300  1.0000
  H   H119      1.0  0.34700  0.65500  0.26300  1.0000
  H   H120      1.0  0.15300  0.15500  0.23700  1.0000
  H   H121      1.0  0.60300  0.63600  0.75600  1.0000
  H   H122      1.0  0.89700  0.13600  0.74400  1.0000
  H   H123      1.0  0.39700  0.36400  0.24400  1.0000
  H   H124      1.0  0.10300  0.86400  0.25600  1.0000
  H   H125      1.0  0.80400  0.36400  0.82500  1.0000
  H   H126      1.0  0.69600  0.86400  0.67500  1.0000
  H   H127      1.0  0.19600  0.63600  0.17500  1.0000
  H   H128      1.0  0.30400  0.13600  0.32500  1.0000
  H   H129      1.0  0.85500  0.33000  0.72700  1.0000
  H   H130      1.0  0.64600  0.83000  0.77300  1.0000
  H   H131      1.0  0.14600  0.67000  0.27300  1.0000
  H   H132      1.0  0.35400  0.17000  0.22700  1.0000
  Li  Li1       1.0  0.80700  0.49900  0.68600  1.0000
  Li  Li2       1.0  0.69300  0.99900  0.81400  1.0000
  Li  Li3       1.0  0.19300  0.50100  0.31400  1.0000
  Li  Li4       1.0  0.30700  0.00082  0.18600  1.0000
  Li  Li5       1.0  0.83000  0.15100  0.44500  1.0000
  Li  Li6       1.0  0.67000  0.65100  0.05450  1.0000
  Li  Li7       1.0  0.17000  0.84900  0.55500  1.0000
  Li  Li8       1.0  0.33000  0.34900  0.94500  1.0000
  N   N1        1.0  0.71900  0.44600  0.55500  1.0000
  N   N2        1.0  0.78100  0.94600  0.94500  1.0000
  N   N3        1.0  0.28100  0.55400  0.44500  1.0000
  N   N4        1.0  0.21900  0.05360  0.05490  1.0000
  N   N5        1.0  0.77400  0.37400  0.75600  1.0000
  N   N6        1.0  0.72600  0.87400  0.74400  1.0000
  N   N7        1.0  0.22600  0.62600  0.24400  1.0000
  N   N8        1.0  0.27400  0.12600  0.25600  1.0000
  N   N9        1.0  0.72200  0.62600  0.73800  1.0000
  N   N10       1.0  0.77800  0.12600  0.76200  1.0000
  N   N11       1.0  0.27800  0.37400  0.26200  1.0000
  N   N12       1.0  0.22200  0.87400  0.23800  1.0000
  N   N13       1.0  0.04880  0.55100  0.66700  1.0000
  N   N14       1.0  0.45100  0.05140  0.83300  1.0000
  N   N15       1.0  0.95100  0.44900  0.33300  1.0000
  N   N16       1.0  0.54900  0.94900  0.16700  1.0000
  N   N17       1.0  0.67200  0.26100  0.39000  1.0000
  N   N18       1.0  0.82800  0.76100  0.11000  1.0000
  N   N19       1.0  0.32800  0.73900  0.61000  1.0000
  N   N20       1.0  0.17200  0.23900  0.89000  1.0000
  N   N21       1.0  0.71600  0.06490  0.53200  1.0000
  N   N22       1.0  0.78400  0.56500  0.96800  1.0000
  N   N23       1.0  0.28400  0.93500  0.46800  1.0000
  N   N24       1.0  0.21600  0.43500  0.03190  1.0000
  N   N25       1.0  0.89800  0.06670  0.34300  1.0000
  N   N26       1.0  0.60200  0.56700  0.15700  1.0000
  N   N27       1.0  0.10200  0.93300  0.65700  1.0000
  N   N28       1.0  0.39800  0.43300  0.84300  1.0000
