data_image0
_chemical_formula_structural       Co2F2Li2O8S2
_chemical_formula_sum              "Co2 F2 Li2 O8 S2"
_cell_length_a       5.04787
_cell_length_b       5.30385
_cell_length_c       6.81881
_cell_angle_alpha    106.636
_cell_angle_beta     108.181
_cell_angle_gamma    99.1163

_space_group_name_H-M_alt    "P 1"
_space_group_IT_number       1

loop_
  _space_group_symop_operation_xyz
  'x, y, z'

loop_
  _atom_site_type_symbol
  _atom_site_label
  _atom_site_symmetry_multiplicity
  _atom_site_fract_x
  _atom_site_fract_y
  _atom_site_fract_z
  _atom_site_occupancy
  Co  Co1       1.0  0.00000  0.00000  0.00000  1.0000
  Co  Co2       1.0  0.00000  0.00000  0.50000  1.0000
  F   F1        1.0  0.16100  0.93200  0.76900  1.0000
  F   F2        1.0  0.83900  0.06830  0.23100  1.0000
  Li  Li1       1.0  0.28300  0.64000  0.78900  1.0000
  Li  Li2       1.0  0.71700  0.36000  0.21100  1.0000
  O   O1        1.0  0.29100  0.78900  0.10900  1.0000
  O   O2        1.0  0.70900  0.21100  0.89100  1.0000
  O   O3        1.0  0.32100  0.35700  0.14200  1.0000
  O   O4        1.0  0.67900  0.64300  0.85800  1.0000
  O   O5        1.0  0.08680  0.63700  0.34700  1.0000
  O   O6        1.0  0.91300  0.36300  0.65300  1.0000
  O   O7        1.0  0.60600  0.75900  0.45100  1.0000
  O   O8        1.0  0.39400  0.24100  0.54900  1.0000
  S   S1        1.0  0.32600  0.64100  0.26400  1.0000
  S   S2        1.0  0.67400  0.35900  0.73600  1.0000
