data_image0
_chemical_formula_structural       In9La11Ni4
_chemical_formula_sum              "In9 La11 Ni4"
_cell_length_a       13.5247
_cell_length_b       13.5247
_cell_length_c       3.83443
_cell_angle_alpha    90
_cell_angle_beta     90
_cell_angle_gamma    67.4758

_space_group_name_H-M_alt    "P 1"
_space_group_IT_number       1

loop_
  _space_group_symop_operation_xyz
  'x, y, z'

loop_
  _atom_site_type_symbol
  _atom_site_label
  _atom_site_symmetry_multiplicity
  _atom_site_fract_x
  _atom_site_fract_y
  _atom_site_fract_z
  _atom_site_occupancy
  In  In1       1.0  0.36700  0.16500  0.50000  1.0000
  In  In2       1.0  0.63300  0.83500  0.50000  1.0000
  In  In3       1.0  0.83500  0.63300  0.50000  1.0000
  In  In4       1.0  0.16500  0.36700  0.50000  1.0000
  In  In5       1.0  0.22100  0.91900  0.50000  1.0000
  In  In6       1.0  0.77900  0.08080  0.50000  1.0000
  In  In7       1.0  0.08080  0.77900  0.50000  1.0000
  In  In8       1.0  0.91900  0.22100  0.50000  1.0000
  In  In9       1.0  0.50000  0.50000  0.50000  1.0000
  La  La1       1.0  0.31200  0.68800  0.00000  1.0000
  La  La2       1.0  0.68800  0.31200  0.00000  1.0000
  La  La3       1.0  0.00000  0.00000  0.00000  1.0000
  La  La4       1.0  0.41700  0.92500  0.00000  1.0000
  La  La5       1.0  0.58300  0.07500  0.00000  1.0000
  La  La6       1.0  0.07500  0.58300  0.00000  1.0000
  La  La7       1.0  0.92500  0.41700  0.00000  1.0000
  La  La8       1.0  0.16100  0.16100  0.00000  1.0000
  La  La9       1.0  0.83900  0.83900  0.00000  1.0000
  La  La10      1.0  0.37500  0.37500  0.00000  1.0000
  La  La11      1.0  0.62500  0.62500  0.00000  1.0000
  Ni  Ni1       1.0  0.44700  0.75700  0.50000  1.0000
  Ni  Ni2       1.0  0.55300  0.24300  0.50000  1.0000
  Ni  Ni3       1.0  0.24300  0.55300  0.50000  1.0000
  Ni  Ni4       1.0  0.75700  0.44700  0.50000  1.0000
