data_image0
_chemical_formula_structural       Li42Si18
_chemical_formula_sum              "Li42 Si18"
_cell_length_a       7.3538
_cell_length_b       7.3538
_cell_length_c       17.5409
_cell_angle_alpha    90
_cell_angle_beta     90
_cell_angle_gamma    120

_space_group_name_H-M_alt    "P 1"
_space_group_IT_number       1

loop_
  _space_group_symop_operation_xyz
  'x, y, z'

loop_
  _atom_site_type_symbol
  _atom_site_label
  _atom_site_symmetry_multiplicity
  _atom_site_fract_x
  _atom_site_fract_y
  _atom_site_fract_z
  _atom_site_occupancy
  Li  Li1       1.0  0.80200  0.91300  0.28900  1.0000
  Li  Li2       1.0  0.08740  0.88900  0.95500  1.0000
  Li  Li3       1.0  0.11100  0.19800  0.62200  1.0000
  Li  Li4       1.0  0.08740  0.19800  0.04480  1.0000
  Li  Li5       1.0  0.80200  0.88900  0.71100  1.0000
  Li  Li6       1.0  0.11100  0.91300  0.37800  1.0000
  Li  Li7       1.0  0.44700  0.55800  0.81700  1.0000
  Li  Li8       1.0  0.44200  0.88900  0.48400  1.0000
  Li  Li9       1.0  0.11100  0.55300  0.15100  1.0000
  Li  Li10      1.0  0.44200  0.55300  0.51600  1.0000
  Li  Li11      1.0  0.44700  0.88900  0.18300  1.0000
  Li  Li12      1.0  0.11100  0.55800  0.84900  1.0000
  Li  Li13      1.0  0.47000  0.58200  0.95900  1.0000
  Li  Li14      1.0  0.41800  0.88800  0.62600  1.0000
  Li  Li15      1.0  0.11200  0.53000  0.29300  1.0000
  Li  Li16      1.0  0.41800  0.53000  0.37400  1.0000
  Li  Li17      1.0  0.47000  0.88800  0.04060  1.0000
  Li  Li18      1.0  0.11200  0.58200  0.70700  1.0000
  Li  Li19      1.0  0.78000  0.55900  0.48500  1.0000
  Li  Li20      1.0  0.44100  0.22100  0.15100  1.0000
  Li  Li21      1.0  0.77900  0.22000  0.81800  1.0000
  Li  Li22      1.0  0.44100  0.22000  0.84900  1.0000
  Li  Li23      1.0  0.78000  0.22100  0.51500  1.0000
  Li  Li24      1.0  0.77900  0.55900  0.18200  1.0000
  Li  Li25      1.0  0.44500  0.55500  0.66700  1.0000
  Li  Li26      1.0  0.44500  0.88900  0.33300  1.0000
  Li  Li27      1.0  0.11100  0.55500  0.00000  1.0000
  Li  Li28      1.0  0.77700  0.22300  0.66700  1.0000
  Li  Li29      1.0  0.77700  0.55500  0.33300  1.0000
  Li  Li30      1.0  0.44500  0.22300  0.00000  1.0000
  Li  Li31      1.0  0.77900  0.89100  0.13600  1.0000
  Li  Li32      1.0  0.10900  0.88900  0.80300  1.0000
  Li  Li33      1.0  0.11100  0.22100  0.47000  1.0000
  Li  Li34      1.0  0.10900  0.22100  0.19700  1.0000
  Li  Li35      1.0  0.77900  0.88900  0.86400  1.0000
  Li  Li36      1.0  0.11100  0.89100  0.53000  1.0000
  Li  Li37      1.0  0.80400  0.58300  0.62700  1.0000
  Li  Li38      1.0  0.41700  0.22100  0.29300  1.0000
  Li  Li39      1.0  0.77900  0.19600  0.96000  1.0000
  Li  Li40      1.0  0.41700  0.19600  0.70700  1.0000
  Li  Li41      1.0  0.80400  0.22100  0.37300  1.0000
  Li  Li42      1.0  0.77900  0.58300  0.04010  1.0000
  Si  Si1       1.0  0.76400  0.53700  0.76700  1.0000
  Si  Si2       1.0  0.46300  0.22700  0.43400  1.0000
  Si  Si3       1.0  0.77300  0.23600  0.10000  1.0000
  Si  Si4       1.0  0.46400  0.23600  0.56600  1.0000
  Si  Si5       1.0  0.76400  0.22700  0.23300  1.0000
  Si  Si6       1.0  0.77300  0.53600  0.90000  1.0000
  Si  Si7       1.0  0.43400  0.54300  0.10000  1.0000
  Si  Si8       1.0  0.45700  0.89100  0.76700  1.0000
  Si  Si9       1.0  0.10900  0.56600  0.43400  1.0000
  Si  Si10      1.0  0.45700  0.56600  0.23300  1.0000
  Si  Si11      1.0  0.43400  0.89100  0.90000  1.0000
  Si  Si12      1.0  0.10900  0.54300  0.56600  1.0000
  Si  Si13      1.0  0.75900  0.87500  0.43300  1.0000
  Si  Si14      1.0  0.12500  0.88500  0.09970  1.0000
  Si  Si15      1.0  0.11500  0.24100  0.76600  1.0000
  Si  Si16      1.0  0.12500  0.24100  0.90000  1.0000
  Si  Si17      1.0  0.75900  0.88500  0.56700  1.0000
  Si  Si18      1.0  0.11500  0.87500  0.23400  1.0000
