data_image0
_chemical_formula_structural       Bi4CoFe3O12
_chemical_formula_sum              "Bi4 Co1 Fe3 O12"
_cell_length_a       10.869
_cell_length_b       5.42757
_cell_length_c       5.43533
_cell_angle_alpha    60.7604
_cell_angle_beta     60.6745
_cell_angle_gamma    60.8783

_space_group_name_H-M_alt    "P 1"
_space_group_IT_number       1

loop_
  _space_group_symop_operation_xyz
  'x, y, z'

loop_
  _atom_site_type_symbol
  _atom_site_label
  _atom_site_symmetry_multiplicity
  _atom_site_fract_x
  _atom_site_fract_y
  _atom_site_fract_z
  _atom_site_occupancy
  Bi  Bi1       1.0  0.75100  0.48900  0.48500  1.0000
  Bi  Bi2       1.0  0.23900  0.49100  0.49100  1.0000
  Bi  Bi3       1.0  0.49100  0.99500  0.98600  1.0000
  Bi  Bi4       1.0  0.99700  0.98300  0.98900  1.0000
  Co  Co1       1.0  0.10900  0.21500  0.22100  1.0000
  Fe  Fe1       1.0  0.61100  0.22500  0.21700  1.0000
  Fe  Fe2       1.0  0.86500  0.71900  0.72300  1.0000
  Fe  Fe3       1.0  0.35800  0.72600  0.72000  1.0000
  O   O1        1.0  0.26500  0.39200  0.95400  1.0000
  O   O2        1.0  0.95300  0.03650  0.45100  1.0000
  O   O3        1.0  0.77200  0.39100  0.93500  1.0000
  O   O4        1.0  0.71900  0.89200  0.03720  1.0000
  O   O5        1.0  0.46500  0.54500  0.38600  1.0000
  O   O6        1.0  0.52200  0.44800  0.87500  1.0000
  O   O7        1.0  0.01840  0.44000  0.91400  1.0000
  O   O8        1.0  0.98300  0.52800  0.39300  1.0000
  O   O9        1.0  0.70200  0.94400  0.52800  1.0000
  O   O10       1.0  0.44300  0.04680  0.43300  1.0000
  O   O11       1.0  0.22100  0.90200  0.04200  1.0000
  O   O12       1.0  0.19100  0.94900  0.53900  1.0000
