data_image0
_chemical_formula_structural       Fe2Ge4Y2
_chemical_formula_sum              "Fe2 Ge4 Y2"
_cell_length_a       4.20509
_cell_length_b       4.15929
_cell_length_c       8.54259
_cell_angle_alpha    75.9101
_cell_angle_beta     90
_cell_angle_gamma    90

_space_group_name_H-M_alt    "P 1"
_space_group_IT_number       1

loop_
  _space_group_symop_operation_xyz
  'x, y, z'

loop_
  _atom_site_type_symbol
  _atom_site_label
  _atom_site_symmetry_multiplicity
  _atom_site_fract_x
  _atom_site_fract_y
  _atom_site_fract_z
  _atom_site_occupancy
  Fe  Fe1       1.0  0.75000  0.31800  0.36400  1.0000
  Fe  Fe2       1.0  0.25000  0.68200  0.63600  1.0000
  Ge  Ge1       1.0  0.75000  0.45400  0.09120  1.0000
  Ge  Ge2       1.0  0.25000  0.25100  0.49900  1.0000
  Ge  Ge3       1.0  0.75000  0.74900  0.50100  1.0000
  Ge  Ge4       1.0  0.25000  0.54600  0.90900  1.0000
  Y   Y1        1.0  0.25000  0.89100  0.21700  1.0000
  Y   Y2        1.0  0.75000  0.10900  0.78300  1.0000
