data_image0
_chemical_formula_structural       F6NiPb
_chemical_formula_sum              "F6 Ni1 Pb1"
_cell_length_a       4.92762
_cell_length_b       4.92724
_cell_length_c       5.38086
_cell_angle_alpha    62.7389
_cell_angle_beta     117.255
_cell_angle_gamma    120.012

_space_group_name_H-M_alt    "P 1"
_space_group_IT_number       1

loop_
  _space_group_symop_operation_xyz
  'x, y, z'

loop_
  _atom_site_type_symbol
  _atom_site_label
  _atom_site_symmetry_multiplicity
  _atom_site_fract_x
  _atom_site_fract_y
  _atom_site_fract_z
  _atom_site_occupancy
  F   F1        1.0  0.05690  0.23300  0.24100  1.0000
  F   F2        1.0  0.41700  0.94300  0.24100  1.0000
  F   F3        1.0  0.76700  0.58300  0.24100  1.0000
  F   F4        1.0  0.23300  0.41700  0.75900  1.0000
  F   F5        1.0  0.58300  0.05690  0.75900  1.0000
  F   F6        1.0  0.94300  0.76700  0.75900  1.0000
  Ni  Ni1       1.0  0.00000  0.00000  0.00000  1.0000
  Pb  Pb1       1.0  0.50000  0.50000  0.50000  1.0000
