data_image0
_chemical_formula_structural       B8Ca4H56N8
_chemical_formula_sum              "B8 Ca4 H56 N8"
_cell_length_a       6.19475
_cell_length_b       7.96067
_cell_length_c       11.8633
_cell_angle_alpha    90
_cell_angle_beta     90
_cell_angle_gamma    90

_space_group_name_H-M_alt    "P 1"
_space_group_IT_number       1

loop_
  _space_group_symop_operation_xyz
  'x, y, z'

loop_
  _atom_site_type_symbol
  _atom_site_label
  _atom_site_symmetry_multiplicity
  _atom_site_fract_x
  _atom_site_fract_y
  _atom_site_fract_z
  _atom_site_occupancy
  B   B1        1.0  0.76700  0.52100  0.15300  1.0000
  B   B2        1.0  0.73300  0.97900  0.65300  1.0000
  B   B3        1.0  0.26700  0.97900  0.84700  1.0000
  B   B4        1.0  0.23300  0.52100  0.34700  1.0000
  B   B5        1.0  0.23300  0.47900  0.84700  1.0000
  B   B6        1.0  0.26700  0.02050  0.34700  1.0000
  B   B7        1.0  0.73300  0.02050  0.15300  1.0000
  B   B8        1.0  0.76700  0.47900  0.65300  1.0000
  Ca  Ca1       1.0  0.00000  0.24300  0.25000  1.0000
  Ca  Ca2       1.0  0.50000  0.25700  0.75000  1.0000
  Ca  Ca3       1.0  0.00000  0.75700  0.75000  1.0000
  Ca  Ca4       1.0  0.50000  0.74300  0.25000  1.0000
  H   H1        1.0  0.82000  0.33200  0.66100  1.0000
  H   H2        1.0  0.68000  0.16800  0.16100  1.0000
  H   H3        1.0  0.32000  0.16800  0.33900  1.0000
  H   H4        1.0  0.18000  0.33200  0.83900  1.0000
  H   H5        1.0  0.18000  0.66800  0.33900  1.0000
  H   H6        1.0  0.32000  0.83200  0.83900  1.0000
  H   H7        1.0  0.68000  0.83200  0.66100  1.0000
  H   H8        1.0  0.82000  0.66800  0.16100  1.0000
  H   H9        1.0  0.60200  0.49000  0.59700  1.0000
  H   H10       1.0  0.89800  0.01040  0.09670  1.0000
  H   H11       1.0  0.10200  0.01040  0.40300  1.0000
  H   H12       1.0  0.39800  0.49000  0.90300  1.0000
  H   H13       1.0  0.39800  0.51000  0.40300  1.0000
  H   H14       1.0  0.10200  0.99000  0.90300  1.0000
  H   H15       1.0  0.89800  0.99000  0.59700  1.0000
  H   H16       1.0  0.60200  0.51000  0.09670  1.0000
  H   H17       1.0  0.28300  0.35600  0.05070  1.0000
  H   H18       1.0  0.21700  0.14400  0.55100  1.0000
  H   H19       1.0  0.78300  0.14400  0.94900  1.0000
  H   H20       1.0  0.71700  0.35600  0.44900  1.0000
  H   H21       1.0  0.71700  0.64400  0.94900  1.0000
  H   H22       1.0  0.78300  0.85600  0.44900  1.0000
  H   H23       1.0  0.21700  0.85600  0.05070  1.0000
  H   H24       1.0  0.28300  0.64400  0.55100  1.0000
  H   H25       1.0  0.78300  0.83600  0.97800  1.0000
  H   H26       1.0  0.71700  0.66400  0.47800  1.0000
  H   H27       1.0  0.28300  0.66400  0.02190  1.0000
  H   H28       1.0  0.21700  0.83600  0.52200  1.0000
  H   H29       1.0  0.21700  0.16400  0.02190  1.0000
  H   H30       1.0  0.28300  0.33600  0.52200  1.0000
  H   H31       1.0  0.71700  0.33600  0.97800  1.0000
  H   H32       1.0  0.78300  0.16400  0.47800  1.0000
  H   H33       1.0  0.90400  0.29900  0.88400  1.0000
  H   H34       1.0  0.59600  0.20100  0.38400  1.0000
  H   H35       1.0  0.40400  0.20100  0.11600  1.0000
  H   H36       1.0  0.09630  0.29900  0.61600  1.0000
  H   H37       1.0  0.09630  0.70100  0.11600  1.0000
  H   H38       1.0  0.40400  0.79900  0.61600  1.0000
  H   H39       1.0  0.59600  0.79900  0.88400  1.0000
  H   H40       1.0  0.90400  0.70100  0.38400  1.0000
  H   H41       1.0  0.72800  0.53300  0.74800  1.0000
  H   H42       1.0  0.77200  0.96700  0.24800  1.0000
  H   H43       1.0  0.22800  0.96700  0.25200  1.0000
  H   H44       1.0  0.27200  0.53300  0.75200  1.0000
  H   H45       1.0  0.27200  0.46700  0.25200  1.0000
  H   H46       1.0  0.22800  0.03320  0.75200  1.0000
  H   H47       1.0  0.77200  0.03320  0.74800  1.0000
  H   H48       1.0  0.72800  0.46700  0.24800  1.0000
  H   H49       1.0  0.91400  0.55400  0.60700  1.0000
  H   H50       1.0  0.58600  0.94600  0.10700  1.0000
  H   H51       1.0  0.41400  0.94600  0.39300  1.0000
  H   H52       1.0  0.08630  0.55400  0.89300  1.0000
  H   H53       1.0  0.08630  0.44600  0.39300  1.0000
  H   H54       1.0  0.41400  0.05420  0.89300  1.0000
  H   H55       1.0  0.58600  0.05420  0.60700  1.0000
  H   H56       1.0  0.91400  0.44600  0.10700  1.0000
  N   N1        1.0  0.25500  0.24200  0.08790  1.0000
  N   N2        1.0  0.24500  0.25800  0.58800  1.0000
  N   N3        1.0  0.75500  0.25800  0.91200  1.0000
  N   N4        1.0  0.74500  0.24200  0.41200  1.0000
  N   N5        1.0  0.74500  0.75800  0.91200  1.0000
  N   N6        1.0  0.75500  0.74200  0.41200  1.0000
  N   N7        1.0  0.24500  0.74200  0.08790  1.0000
  N   N8        1.0  0.25500  0.75800  0.58800  1.0000
