data_image0
_chemical_formula_structural       H24Li16O32P8
_chemical_formula_sum              "H24 Li16 O32 P8"
_cell_length_a       4.85603
_cell_length_b       8.84403
_cell_length_c       15.6455
_cell_angle_alpha    90
_cell_angle_beta     95.8615
_cell_angle_gamma    90

_space_group_name_H-M_alt    "P 1"
_space_group_IT_number       1

loop_
  _space_group_symop_operation_xyz
  'x, y, z'

loop_
  _atom_site_type_symbol
  _atom_site_label
  _atom_site_symmetry_multiplicity
  _atom_site_fract_x
  _atom_site_fract_y
  _atom_site_fract_z
  _atom_site_occupancy
  H   H1        1.0  0.70000  0.49400  0.29600  1.0000
  H   H2        1.0  0.30000  0.99400  0.20400  1.0000
  H   H3        1.0  0.30000  0.50600  0.70400  1.0000
  H   H4        1.0  0.70000  0.00584  0.79600  1.0000
  H   H5        1.0  0.40500  0.24400  0.23600  1.0000
  H   H6        1.0  0.59500  0.74400  0.26400  1.0000
  H   H7        1.0  0.59500  0.75600  0.76400  1.0000
  H   H8        1.0  0.40500  0.25600  0.73600  1.0000
  H   H9        1.0  0.14500  0.98000  0.30700  1.0000
  H   H10       1.0  0.85500  0.48000  0.19300  1.0000
  H   H11       1.0  0.85500  0.01990  0.69300  1.0000
  H   H12       1.0  0.14500  0.52000  0.80700  1.0000
  H   H13       1.0  0.29400  0.58500  0.21200  1.0000
  H   H14       1.0  0.70600  0.08500  0.28800  1.0000
  H   H15       1.0  0.70600  0.41500  0.78800  1.0000
  H   H16       1.0  0.29400  0.91500  0.71200  1.0000
  H   H17       1.0  0.07600  0.24000  0.24700  1.0000
  H   H18       1.0  0.92400  0.74000  0.25300  1.0000
  H   H19       1.0  0.92400  0.76000  0.75300  1.0000
  H   H20       1.0  0.07600  0.26000  0.74700  1.0000
  H   H21       1.0  0.21700  0.59200  0.30700  1.0000
  H   H22       1.0  0.78300  0.09170  0.19300  1.0000
  H   H23       1.0  0.78300  0.40800  0.69300  1.0000
  H   H24       1.0  0.21700  0.90800  0.80700  1.0000
  Li  Li1       1.0  0.79600  0.83300  0.44100  1.0000
  Li  Li2       1.0  0.20400  0.33300  0.05910  1.0000
  Li  Li3       1.0  0.20400  0.16700  0.55900  1.0000
  Li  Li4       1.0  0.79600  0.66700  0.94100  1.0000
  Li  Li5       1.0  0.32000  0.64600  0.45600  1.0000
  Li  Li6       1.0  0.68000  0.14600  0.04430  1.0000
  Li  Li7       1.0  0.68000  0.35400  0.54400  1.0000
  Li  Li8       1.0  0.32000  0.85400  0.95600  1.0000
  Li  Li9       1.0  0.29900  0.31800  0.38200  1.0000
  Li  Li10      1.0  0.70100  0.81800  0.11800  1.0000
  Li  Li11      1.0  0.70100  0.68200  0.61800  1.0000
  Li  Li12      1.0  0.29900  0.18200  0.88200  1.0000
  Li  Li13      1.0  0.79900  0.15400  0.43800  1.0000
  Li  Li14      1.0  0.20100  0.65400  0.06180  1.0000
  Li  Li15      1.0  0.20100  0.84600  0.56200  1.0000
  Li  Li16      1.0  0.79900  0.34600  0.93800  1.0000
  O   O1        1.0  0.25300  0.65700  0.25800  1.0000
  O   O2        1.0  0.74700  0.15700  0.24200  1.0000
  O   O3        1.0  0.74700  0.34300  0.74200  1.0000
  O   O4        1.0  0.25300  0.84300  0.75800  1.0000
  O   O5        1.0  0.25100  0.29700  0.26000  1.0000
  O   O6        1.0  0.74900  0.79700  0.24000  1.0000
  O   O7        1.0  0.74900  0.70300  0.74000  1.0000
  O   O8        1.0  0.25100  0.20300  0.76000  1.0000
  O   O9        1.0  0.68100  0.35200  0.42100  1.0000
  O   O10       1.0  0.31900  0.85200  0.07870  1.0000
  O   O11       1.0  0.31900  0.64800  0.57900  1.0000
  O   O12       1.0  0.68100  0.14800  0.92100  1.0000
  O   O13       1.0  0.10900  0.50100  0.39200  1.0000
  O   O14       1.0  0.89100  0.00089  0.10800  1.0000
  O   O15       1.0  0.89100  0.49900  0.60800  1.0000
  O   O16       1.0  0.10900  0.99900  0.89200  1.0000
  O   O17       1.0  0.67500  0.63800  0.42300  1.0000
  O   O18       1.0  0.32500  0.13800  0.07680  1.0000
  O   O19       1.0  0.32500  0.36200  0.57700  1.0000
  O   O20       1.0  0.67500  0.86200  0.92300  1.0000
  O   O21       1.0  0.19600  0.84800  0.43700  1.0000
  O   O22       1.0  0.80400  0.34800  0.06260  1.0000
  O   O23       1.0  0.80400  0.15200  0.56300  1.0000
  O   O24       1.0  0.19600  0.65200  0.93700  1.0000
  O   O25       1.0  0.59500  0.99500  0.38100  1.0000
  O   O26       1.0  0.40500  0.49500  0.11900  1.0000
  O   O27       1.0  0.40500  0.00537  0.61900  1.0000
  O   O28       1.0  0.59500  0.50500  0.88100  1.0000
  O   O29       1.0  0.18500  0.13300  0.43200  1.0000
  O   O30       1.0  0.81500  0.63300  0.06800  1.0000
  O   O31       1.0  0.81500  0.86700  0.56800  1.0000
  O   O32       1.0  0.18500  0.36700  0.93200  1.0000
  P   P1        1.0  0.79200  0.49800  0.38400  1.0000
  P   P2        1.0  0.20800  0.99800  0.11600  1.0000
  P   P3        1.0  0.20800  0.50200  0.61600  1.0000
  P   P4        1.0  0.79200  0.00198  0.88400  1.0000
  P   P5        1.0  0.28300  0.98900  0.39000  1.0000
  P   P6        1.0  0.71700  0.48900  0.11000  1.0000
  P   P7        1.0  0.71700  0.01130  0.61000  1.0000
  P   P8        1.0  0.28300  0.51100  0.89000  1.0000
