data_image0
_chemical_formula_structural       B16H64K4Sc4
_chemical_formula_sum              "B16 H64 K4 Sc4"
_cell_length_a       11.7679
_cell_length_b       7.86676
_cell_length_c       9.02092
_cell_angle_alpha    90
_cell_angle_beta     90
_cell_angle_gamma    90

_space_group_name_H-M_alt    "P 1"
_space_group_IT_number       1

loop_
  _space_group_symop_operation_xyz
  'x, y, z'

loop_
  _atom_site_type_symbol
  _atom_site_label
  _atom_site_symmetry_multiplicity
  _atom_site_fract_x
  _atom_site_fract_y
  _atom_site_fract_z
  _atom_site_occupancy
  B   B1        1.0  0.18200  0.25000  0.97800  1.0000
  B   B2        1.0  0.31800  0.75000  0.47800  1.0000
  B   B3        1.0  0.68200  0.25000  0.52200  1.0000
  B   B4        1.0  0.81800  0.75000  0.02240  1.0000
  B   B5        1.0  0.37700  0.25000  0.42200  1.0000
  B   B6        1.0  0.12300  0.75000  0.92200  1.0000
  B   B7        1.0  0.87700  0.25000  0.07850  1.0000
  B   B8        1.0  0.62300  0.75000  0.57800  1.0000
  B   B9        1.0  0.08020  0.01340  0.32100  1.0000
  B   B10       1.0  0.42000  0.98700  0.82100  1.0000
  B   B11       1.0  0.58000  0.48700  0.17900  1.0000
  B   B12       1.0  0.92000  0.51300  0.67900  1.0000
  B   B13       1.0  0.92000  0.98700  0.67900  1.0000
  B   B14       1.0  0.58000  0.01340  0.17900  1.0000
  B   B15       1.0  0.42000  0.51300  0.82100  1.0000
  B   B16       1.0  0.08020  0.48700  0.32100  1.0000
  H   H1        1.0  0.05260  0.96900  0.19500  1.0000
  H   H2        1.0  0.44700  0.03100  0.69500  1.0000
  H   H3        1.0  0.55300  0.53100  0.30500  1.0000
  H   H4        1.0  0.94700  0.46900  0.80500  1.0000
  H   H5        1.0  0.94700  0.03100  0.80500  1.0000
  H   H6        1.0  0.55300  0.96900  0.30500  1.0000
  H   H7        1.0  0.44700  0.46900  0.69500  1.0000
  H   H8        1.0  0.05260  0.53100  0.19500  1.0000
  H   H9        1.0  0.16900  0.09670  0.30900  1.0000
  H   H10       1.0  0.33100  0.90300  0.80900  1.0000
  H   H11       1.0  0.66900  0.40300  0.19100  1.0000
  H   H12       1.0  0.83100  0.59700  0.69100  1.0000
  H   H13       1.0  0.83100  0.90300  0.69100  1.0000
  H   H14       1.0  0.66900  0.09670  0.19100  1.0000
  H   H15       1.0  0.33100  0.59700  0.80900  1.0000
  H   H16       1.0  0.16900  0.40300  0.30900  1.0000
  H   H17       1.0  0.24300  0.25000  0.87200  1.0000
  H   H18       1.0  0.25700  0.75000  0.37200  1.0000
  H   H19       1.0  0.74300  0.25000  0.62800  1.0000
  H   H20       1.0  0.75700  0.75000  0.12800  1.0000
  H   H21       1.0  0.11900  0.37600  0.98000  1.0000
  H   H22       1.0  0.38100  0.62400  0.48000  1.0000
  H   H23       1.0  0.61900  0.12400  0.52000  1.0000
  H   H24       1.0  0.88100  0.87600  0.01950  1.0000
  H   H25       1.0  0.88100  0.62400  0.01950  1.0000
  H   H26       1.0  0.61900  0.37600  0.52000  1.0000
  H   H27       1.0  0.38100  0.87600  0.48000  1.0000
  H   H28       1.0  0.11900  0.12400  0.98000  1.0000
  H   H29       1.0  0.23500  0.25000  0.09580  1.0000
  H   H30       1.0  0.26500  0.75000  0.59600  1.0000
  H   H31       1.0  0.73500  0.25000  0.40400  1.0000
  H   H32       1.0  0.76500  0.75000  0.90400  1.0000
  H   H33       1.0  0.43400  0.37600  0.45800  1.0000
  H   H34       1.0  0.06610  0.62400  0.95800  1.0000
  H   H35       1.0  0.93400  0.12400  0.04190  1.0000
  H   H36       1.0  0.56600  0.87600  0.54200  1.0000
  H   H37       1.0  0.56600  0.62400  0.54200  1.0000
  H   H38       1.0  0.93400  0.37600  0.04190  1.0000
  H   H39       1.0  0.06610  0.87600  0.95800  1.0000
  H   H40       1.0  0.43400  0.12400  0.45800  1.0000
  H   H41       1.0  0.09250  0.89600  0.40500  1.0000
  H   H42       1.0  0.40700  0.10400  0.90500  1.0000
  H   H43       1.0  0.59300  0.60400  0.09520  1.0000
  H   H44       1.0  0.90700  0.39600  0.59500  1.0000
  H   H45       1.0  0.90700  0.10400  0.59500  1.0000
  H   H46       1.0  0.59300  0.89600  0.09520  1.0000
  H   H47       1.0  0.40700  0.39600  0.90500  1.0000
  H   H48       1.0  0.09250  0.60400  0.40500  1.0000
  H   H49       1.0  0.37400  0.25000  0.28400  1.0000
  H   H50       1.0  0.12600  0.75000  0.78400  1.0000
  H   H51       1.0  0.87400  0.25000  0.21600  1.0000
  H   H52       1.0  0.62600  0.75000  0.71600  1.0000
  H   H53       1.0  0.28500  0.25000  0.47700  1.0000
  H   H54       1.0  0.21500  0.75000  0.97700  1.0000
  H   H55       1.0  0.78500  0.25000  0.02310  1.0000
  H   H56       1.0  0.71500  0.75000  0.52300  1.0000
  H   H57       1.0  0.00431  0.11100  0.36500  1.0000
  H   H58       1.0  0.49600  0.88900  0.86500  1.0000
  H   H59       1.0  0.50400  0.38900  0.13500  1.0000
  H   H60       1.0  0.99600  0.61100  0.63500  1.0000
  H   H61       1.0  0.99600  0.88900  0.63500  1.0000
  H   H62       1.0  0.50400  0.11100  0.13500  1.0000
  H   H63       1.0  0.49600  0.61100  0.86500  1.0000
  H   H64       1.0  0.00431  0.38900  0.36500  1.0000
  K   K1        1.0  0.11300  0.25000  0.63800  1.0000
  K   K2        1.0  0.38700  0.75000  0.13800  1.0000
  K   K3        1.0  0.61300  0.25000  0.86200  1.0000
  K   K4        1.0  0.88700  0.75000  0.36200  1.0000
  Sc  Sc1       1.0  0.05640  0.25000  0.17200  1.0000
  Sc  Sc2       1.0  0.44400  0.75000  0.67200  1.0000
  Sc  Sc3       1.0  0.55600  0.25000  0.32800  1.0000
  Sc  Sc4       1.0  0.94400  0.75000  0.82800  1.0000
