data_image0
_chemical_formula_structural       Cs2Pr2Te6Zn2
_chemical_formula_sum              "Cs2 Pr2 Te6 Zn2"
_cell_length_a       8.78236
_cell_length_b       8.78236
_cell_length_c       12.0664
_cell_angle_alpha    90
_cell_angle_beta     90
_cell_angle_gamma    29.8657

_space_group_name_H-M_alt    "P 1"
_space_group_IT_number       1

loop_
  _space_group_symop_operation_xyz
  'x, y, z'

loop_
  _atom_site_type_symbol
  _atom_site_label
  _atom_site_symmetry_multiplicity
  _atom_site_fract_x
  _atom_site_fract_y
  _atom_site_fract_z
  _atom_site_occupancy
  Cs  Cs1       1.0  0.74400  0.74400  0.25000  1.0000
  Cs  Cs2       1.0  0.25600  0.25600  0.75000  1.0000
  Pr  Pr1       1.0  0.00000  0.00000  0.00000  1.0000
  Pr  Pr2       1.0  0.00000  0.00000  0.50000  1.0000
  Te  Te1       1.0  0.05930  0.05930  0.25000  1.0000
  Te  Te2       1.0  0.94100  0.94100  0.75000  1.0000
  Te  Te3       1.0  0.37500  0.37500  0.06460  1.0000
  Te  Te4       1.0  0.62500  0.62500  0.56500  1.0000
  Te  Te5       1.0  0.62500  0.62500  0.93500  1.0000
  Te  Te6       1.0  0.37500  0.37500  0.43500  1.0000
  Zn  Zn1       1.0  0.46100  0.46100  0.25000  1.0000
  Zn  Zn2       1.0  0.53900  0.53900  0.75000  1.0000
