data_image0
_chemical_formula_structural       Ca16N32Si16
_chemical_formula_sum              "Ca16 N32 Si16"
_cell_length_a       5.07594
_cell_length_b       10.1152
_cell_length_c       14.8361
_cell_angle_alpha    90
_cell_angle_beta     90
_cell_angle_gamma    90

_space_group_name_H-M_alt    "P 1"
_space_group_IT_number       1

loop_
  _space_group_symop_operation_xyz
  'x, y, z'

loop_
  _atom_site_type_symbol
  _atom_site_label
  _atom_site_symmetry_multiplicity
  _atom_site_fract_x
  _atom_site_fract_y
  _atom_site_fract_z
  _atom_site_occupancy
  Ca  Ca1       1.0  0.34700  0.27400  0.18700  1.0000
  Ca  Ca2       1.0  0.15300  0.72600  0.68700  1.0000
  Ca  Ca3       1.0  0.84700  0.22600  0.81300  1.0000
  Ca  Ca4       1.0  0.65300  0.77400  0.31300  1.0000
  Ca  Ca5       1.0  0.65300  0.72600  0.81300  1.0000
  Ca  Ca6       1.0  0.84700  0.27400  0.31300  1.0000
  Ca  Ca7       1.0  0.15300  0.77400  0.18700  1.0000
  Ca  Ca8       1.0  0.34700  0.22600  0.68700  1.0000
  Ca  Ca9       1.0  0.24400  0.01260  0.06480  1.0000
  Ca  Ca10      1.0  0.25600  0.98700  0.56500  1.0000
  Ca  Ca11      1.0  0.74400  0.48700  0.93500  1.0000
  Ca  Ca12      1.0  0.75600  0.51300  0.43500  1.0000
  Ca  Ca13      1.0  0.75600  0.98700  0.93500  1.0000
  Ca  Ca14      1.0  0.74400  0.01260  0.43500  1.0000
  Ca  Ca15      1.0  0.25600  0.51300  0.06480  1.0000
  Ca  Ca16      1.0  0.24400  0.48700  0.56500  1.0000
  N   N1        1.0  0.09380  0.47600  0.21400  1.0000
  N   N2        1.0  0.40600  0.52400  0.71400  1.0000
  N   N3        1.0  0.59400  0.02440  0.78600  1.0000
  N   N4        1.0  0.90600  0.97600  0.28600  1.0000
  N   N5        1.0  0.90600  0.52400  0.78600  1.0000
  N   N6        1.0  0.59400  0.47600  0.28600  1.0000
  N   N7        1.0  0.40600  0.97600  0.21400  1.0000
  N   N8        1.0  0.09380  0.02440  0.71400  1.0000
  N   N9        1.0  0.15000  0.28200  0.03420  1.0000
  N   N10       1.0  0.35000  0.71800  0.53400  1.0000
  N   N11       1.0  0.65000  0.21800  0.96600  1.0000
  N   N12       1.0  0.85000  0.78200  0.46600  1.0000
  N   N13       1.0  0.85000  0.71800  0.96600  1.0000
  N   N14       1.0  0.65000  0.28200  0.46600  1.0000
  N   N15       1.0  0.35000  0.78200  0.03420  1.0000
  N   N16       1.0  0.15000  0.21800  0.53400  1.0000
  N   N17       1.0  0.18700  0.42700  0.40900  1.0000
  N   N18       1.0  0.31300  0.57300  0.90900  1.0000
  N   N19       1.0  0.68700  0.07340  0.59100  1.0000
  N   N20       1.0  0.81300  0.92700  0.09080  1.0000
  N   N21       1.0  0.81300  0.57300  0.59100  1.0000
  N   N22       1.0  0.68700  0.42700  0.09080  1.0000
  N   N23       1.0  0.31300  0.92700  0.40900  1.0000
  N   N24       1.0  0.18700  0.07340  0.90900  1.0000
  N   N25       1.0  0.28800  0.18100  0.33700  1.0000
  N   N26       1.0  0.21200  0.81900  0.83700  1.0000
  N   N27       1.0  0.78800  0.31900  0.66300  1.0000
  N   N28       1.0  0.71200  0.68100  0.16300  1.0000
  N   N29       1.0  0.71200  0.81900  0.66300  1.0000
  N   N30       1.0  0.78800  0.18100  0.16300  1.0000
  N   N31       1.0  0.21200  0.68100  0.33700  1.0000
  N   N32       1.0  0.28800  0.31900  0.83700  1.0000
  Si  Si1       1.0  0.31700  0.27000  0.43700  1.0000
  Si  Si2       1.0  0.18300  0.73000  0.93700  1.0000
  Si  Si3       1.0  0.81700  0.23000  0.56300  1.0000
  Si  Si4       1.0  0.68300  0.77000  0.06320  1.0000
  Si  Si5       1.0  0.68300  0.73000  0.56300  1.0000
  Si  Si6       1.0  0.81700  0.27000  0.06320  1.0000
  Si  Si7       1.0  0.18300  0.77000  0.43700  1.0000
  Si  Si8       1.0  0.31700  0.23000  0.93700  1.0000
  Si  Si9       1.0  0.23300  0.01520  0.31200  1.0000
  Si  Si10      1.0  0.26700  0.98500  0.81200  1.0000
  Si  Si11      1.0  0.73300  0.48500  0.68800  1.0000
  Si  Si12      1.0  0.76700  0.51500  0.18800  1.0000
  Si  Si13      1.0  0.76700  0.98500  0.68800  1.0000
  Si  Si14      1.0  0.73300  0.01520  0.18800  1.0000
  Si  Si15      1.0  0.26700  0.51500  0.31200  1.0000
  Si  Si16      1.0  0.23300  0.48500  0.81200  1.0000
