data_image0
_chemical_formula_structural       F6IrRb2
_chemical_formula_sum              "F6 Ir1 Rb2"
_cell_length_a       5.77894
_cell_length_b       5.77891
_cell_length_c       4.59973
_cell_angle_alpha    90.004
_cell_angle_beta     89.996
_cell_angle_gamma    119.999

_space_group_name_H-M_alt    "P 1"
_space_group_IT_number       1

loop_
  _space_group_symop_operation_xyz
  'x, y, z'

loop_
  _atom_site_type_symbol
  _atom_site_label
  _atom_site_symmetry_multiplicity
  _atom_site_fract_x
  _atom_site_fract_y
  _atom_site_fract_z
  _atom_site_occupancy
  F   F1        1.0  0.16400  0.83600  0.26800  1.0000
  F   F2        1.0  0.16400  0.32900  0.26800  1.0000
  F   F3        1.0  0.67100  0.83600  0.26800  1.0000
  F   F4        1.0  0.32900  0.16400  0.73200  1.0000
  F   F5        1.0  0.83600  0.67100  0.73200  1.0000
  F   F6        1.0  0.83600  0.16400  0.73200  1.0000
  Ir  Ir1       1.0  0.00000  0.00000  0.50000  1.0000
  Rb  Rb1       1.0  0.66700  0.33300  0.21200  1.0000
  Rb  Rb2       1.0  0.33300  0.66700  0.78800  1.0000
