data_image0
_chemical_formula_structural       Ca2Cu2Ge4O12
_chemical_formula_sum              "Ca2 Cu2 Ge4 O12"
_cell_length_a       6.67035
_cell_length_b       6.67035
_cell_length_c       5.31455
_cell_angle_alpha    78.3252
_cell_angle_beta     101.675
_cell_angle_gamma    100.515

_space_group_name_H-M_alt    "P 1"
_space_group_IT_number       1

loop_
  _space_group_symop_operation_xyz
  'x, y, z'

loop_
  _atom_site_type_symbol
  _atom_site_label
  _atom_site_symmetry_multiplicity
  _atom_site_fract_x
  _atom_site_fract_y
  _atom_site_fract_z
  _atom_site_occupancy
  Ca  Ca1       1.0  0.31400  0.31400  0.25000  1.0000
  Ca  Ca2       1.0  0.68600  0.68600  0.75000  1.0000
  Cu  Cu1       1.0  0.89900  0.89900  0.25000  1.0000
  Cu  Cu2       1.0  0.10100  0.10100  0.75000  1.0000
  Ge  Ge1       1.0  0.38000  0.82600  0.22900  1.0000
  Ge  Ge2       1.0  0.82600  0.38000  0.27100  1.0000
  Ge  Ge3       1.0  0.62000  0.17400  0.77100  1.0000
  Ge  Ge4       1.0  0.17400  0.62000  0.72900  1.0000
  O   O1        1.0  0.39300  0.67500  0.98700  1.0000
  O   O2        1.0  0.67500  0.39300  0.51300  1.0000
  O   O3        1.0  0.60700  0.32500  0.01260  1.0000
  O   O4        1.0  0.32500  0.60700  0.48700  1.0000
  O   O5        1.0  0.62900  0.92500  0.36000  1.0000
  O   O6        1.0  0.92500  0.62900  0.14000  1.0000
  O   O7        1.0  0.37100  0.07480  0.64000  1.0000
  O   O8        1.0  0.07480  0.37100  0.86000  1.0000
  O   O9        1.0  0.20200  0.99800  0.11200  1.0000
  O   O10       1.0  0.99800  0.20200  0.38800  1.0000
  O   O11       1.0  0.79800  0.00206  0.88800  1.0000
  O   O12       1.0  0.00206  0.79800  0.61200  1.0000
