data_image0
_chemical_formula_structural       B4Fe3GdO12
_chemical_formula_sum              "B4 Fe3 Gd1 O12"
_cell_length_a       6.02546
_cell_length_b       6.02546
_cell_length_c       6.02546
_cell_angle_alpha    104.608
_cell_angle_beta     104.608
_cell_angle_gamma    104.608

_space_group_name_H-M_alt    "P 1"
_space_group_IT_number       1

loop_
  _space_group_symop_operation_xyz
  'x, y, z'

loop_
  _atom_site_type_symbol
  _atom_site_label
  _atom_site_symmetry_multiplicity
  _atom_site_fract_x
  _atom_site_fract_y
  _atom_site_fract_z
  _atom_site_occupancy
  B   B1        1.0  0.50000  0.50000  0.50000  1.0000
  B   B2        1.0  0.05420  0.50000  0.94600  1.0000
  B   B3        1.0  0.94600  0.05420  0.50000  1.0000
  B   B4        1.0  0.50000  0.94600  0.05420  1.0000
  Fe  Fe1       1.0  0.55100  0.44900  0.00000  1.0000
  Fe  Fe2       1.0  1.00000  0.55100  0.44900  1.0000
  Fe  Fe3       1.0  0.44900  0.00000  0.55100  1.0000
  Gd  Gd1       1.0  1.00000  1.00000  1.00000  1.0000
  O   O1        1.0  0.20800  0.36700  0.96800  1.0000
  O   O2        1.0  0.96800  0.20800  0.36700  1.0000
  O   O3        1.0  0.36700  0.96800  0.20800  1.0000
  O   O4        1.0  0.63300  0.79200  0.03210  1.0000
  O   O5        1.0  0.79200  0.03210  0.63300  1.0000
  O   O6        1.0  0.03210  0.63300  0.79200  1.0000
  O   O7        1.0  0.91000  0.50000  0.08960  1.0000
  O   O8        1.0  0.08960  0.91000  0.50000  1.0000
  O   O9        1.0  0.50000  0.08960  0.91000  1.0000
  O   O10       1.0  0.64400  0.50000  0.35600  1.0000
  O   O11       1.0  0.35600  0.64400  0.50000  1.0000
  O   O12       1.0  0.50000  0.35600  0.64400  1.0000
