data_image0
_chemical_formula_structural       Nb4Se22Tl8
_chemical_formula_sum              "Nb4 Se22 Tl8"
_cell_length_a       7.87211
_cell_length_b       9.06305
_cell_length_c       13.5518
_cell_angle_alpha    73.484
_cell_angle_beta     89.2834
_cell_angle_gamma    86.2831

_space_group_name_H-M_alt    "P 1"
_space_group_IT_number       1

loop_
  _space_group_symop_operation_xyz
  'x, y, z'

loop_
  _atom_site_type_symbol
  _atom_site_label
  _atom_site_symmetry_multiplicity
  _atom_site_fract_x
  _atom_site_fract_y
  _atom_site_fract_z
  _atom_site_occupancy
  Nb  Nb1       1.0  0.11600  0.37100  0.30000  1.0000
  Nb  Nb2       1.0  0.88400  0.62900  0.70000  1.0000
  Nb  Nb3       1.0  0.33600  0.10400  0.19100  1.0000
  Nb  Nb4       1.0  0.66400  0.89600  0.80900  1.0000
  Se  Se1       1.0  0.01630  0.12700  0.24700  1.0000
  Se  Se2       1.0  0.98400  0.87300  0.75300  1.0000
  Se  Se3       1.0  0.26700  0.40300  0.10500  1.0000
  Se  Se4       1.0  0.73300  0.59700  0.89500  1.0000
  Se  Se5       1.0  0.44100  0.69300  0.87700  1.0000
  Se  Se6       1.0  0.55900  0.30700  0.12300  1.0000
  Se  Se7       1.0  0.27600  0.03400  0.03470  1.0000
  Se  Se8       1.0  0.72400  0.96600  0.96500  1.0000
  Se  Se9       1.0  0.39500  0.08290  0.75000  1.0000
  Se  Se10      1.0  0.60500  0.91700  0.25000  1.0000
  Se  Se11      1.0  0.04720  0.66800  0.24800  1.0000
  Se  Se12      1.0  0.95300  0.33200  0.75200  1.0000
  Se  Se13      1.0  0.13700  0.48800  0.81600  1.0000
  Se  Se14      1.0  0.86300  0.51200  0.18400  1.0000
  Se  Se15      1.0  0.02380  0.71300  0.53100  1.0000
  Se  Se16      1.0  0.97600  0.28700  0.46900  1.0000
  Se  Se17      1.0  0.39800  0.18800  0.37500  1.0000
  Se  Se18      1.0  0.60200  0.81200  0.62500  1.0000
  Se  Se19      1.0  0.34700  0.84500  0.34100  1.0000
  Se  Se20      1.0  0.65300  0.15500  0.65900  1.0000
  Se  Se21      1.0  0.39800  0.46100  0.34800  1.0000
  Se  Se22      1.0  0.60200  0.53900  0.65200  1.0000
  Tl  Tl1       1.0  0.51500  0.28400  0.88600  1.0000
  Tl  Tl2       1.0  0.48500  0.71600  0.11400  1.0000
  Tl  Tl3       1.0  0.21500  0.98100  0.56800  1.0000
  Tl  Tl4       1.0  0.78500  0.01890  0.43200  1.0000
  Tl  Tl5       1.0  0.05530  0.76000  0.98900  1.0000
  Tl  Tl6       1.0  0.94500  0.24000  0.01080  1.0000
  Tl  Tl7       1.0  0.24800  0.41800  0.57900  1.0000
  Tl  Tl8       1.0  0.75200  0.58200  0.42100  1.0000
