data_image0
_chemical_formula_structural       Cl8Cu8S8W2
_chemical_formula_sum              "Cl8 Cu8 S8 W2"
_cell_length_a       9.23816
_cell_length_b       9.23816
_cell_length_c       9.23816
_cell_angle_alpha    96.1728
_cell_angle_beta     96.1728
_cell_angle_gamma    141.716

_space_group_name_H-M_alt    "P 1"
_space_group_IT_number       1

loop_
  _space_group_symop_operation_xyz
  'x, y, z'

loop_
  _atom_site_type_symbol
  _atom_site_label
  _atom_site_symmetry_multiplicity
  _atom_site_fract_x
  _atom_site_fract_y
  _atom_site_fract_z
  _atom_site_occupancy
  Cl  Cl1       1.0  0.39200  0.60800  0.50000  1.0000
  Cl  Cl2       1.0  0.10800  0.89200  0.50000  1.0000
  Cl  Cl3       1.0  0.60800  0.10800  0.21500  1.0000
  Cl  Cl4       1.0  0.89200  0.39200  0.78500  1.0000
  Cl  Cl5       1.0  0.60800  0.39200  0.50000  1.0000
  Cl  Cl6       1.0  0.89200  0.10800  0.50000  1.0000
  Cl  Cl7       1.0  0.39200  0.89200  0.78500  1.0000
  Cl  Cl8       1.0  0.10800  0.60800  0.21500  1.0000
  Cu  Cu1       1.0  0.16000  0.50000  0.66000  1.0000
  Cu  Cu2       1.0  0.84000  0.50000  0.34000  1.0000
  Cu  Cu3       1.0  0.50000  0.84000  0.34000  1.0000
  Cu  Cu4       1.0  0.50000  0.16000  0.66000  1.0000
  Cu  Cu5       1.0  0.84500  0.84500  0.69000  1.0000
  Cu  Cu6       1.0  0.15500  0.15500  0.31000  1.0000
  Cu  Cu7       1.0  0.15500  0.84500  0.00000  1.0000
  Cu  Cu8       1.0  0.84500  0.15500  0.00000  1.0000
  S   S1        1.0  0.09430  0.25400  0.84000  1.0000
  S   S2        1.0  0.41300  0.25400  0.16000  1.0000
  S   S3        1.0  0.90600  0.74600  0.16000  1.0000
  S   S4        1.0  0.58700  0.74600  0.84000  1.0000
  S   S5        1.0  0.74600  0.90600  0.16000  1.0000
  S   S6        1.0  0.74600  0.58700  0.84000  1.0000
  S   S7        1.0  0.25400  0.09430  0.84000  1.0000
  S   S8        1.0  0.25400  0.41300  0.16000  1.0000
  W   W1        1.0  0.50000  0.50000  0.00000  1.0000
  W   W2        1.0  0.00000  0.00000  0.00000  1.0000
