data_image0
_chemical_formula_structural       F8Li20O32P8V4
_chemical_formula_sum              "F8 Li20 O32 P8 V4"
_cell_length_a       6.22004
_cell_length_b       10.5314
_cell_length_c       10.0723
_cell_angle_alpha    90
_cell_angle_beta     89.833
_cell_angle_gamma    90

_space_group_name_H-M_alt    "P 1"
_space_group_IT_number       1

loop_
  _space_group_symop_operation_xyz
  'x, y, z'

loop_
  _atom_site_type_symbol
  _atom_site_label
  _atom_site_symmetry_multiplicity
  _atom_site_fract_x
  _atom_site_fract_y
  _atom_site_fract_z
  _atom_site_occupancy
  F   F1        1.0  0.76200  0.02800  0.13400  1.0000
  F   F2        1.0  0.23800  0.52800  0.36600  1.0000
  F   F3        1.0  0.23800  0.97200  0.86600  1.0000
  F   F4        1.0  0.76200  0.47200  0.63400  1.0000
  F   F5        1.0  0.78100  0.37300  0.93600  1.0000
  F   F6        1.0  0.21900  0.87300  0.56400  1.0000
  F   F7        1.0  0.21900  0.62700  0.06430  1.0000
  F   F8        1.0  0.78100  0.12700  0.43600  1.0000
  Li  Li1       1.0  0.49400  0.16100  0.23100  1.0000
  Li  Li2       1.0  0.50600  0.66100  0.26900  1.0000
  Li  Li3       1.0  0.50600  0.83900  0.76900  1.0000
  Li  Li4       1.0  0.49400  0.33900  0.73100  1.0000
  Li  Li5       1.0  0.74100  0.91500  0.27700  1.0000
  Li  Li6       1.0  0.25900  0.41500  0.22300  1.0000
  Li  Li7       1.0  0.25900  0.08470  0.72300  1.0000
  Li  Li8       1.0  0.74100  0.58500  0.77700  1.0000
  Li  Li9       1.0  0.96600  0.16100  0.25000  1.0000
  Li  Li10      1.0  0.03360  0.66100  0.25000  1.0000
  Li  Li11      1.0  0.03360  0.83900  0.75000  1.0000
  Li  Li12      1.0  0.96600  0.33900  0.75000  1.0000
  Li  Li13      1.0  0.74200  0.22000  0.02250  1.0000
  Li  Li14      1.0  0.25800  0.72000  0.47800  1.0000
  Li  Li15      1.0  0.25800  0.78000  0.97800  1.0000
  Li  Li16      1.0  0.74200  0.28000  0.52200  1.0000
  Li  Li17      1.0  0.50000  0.00000  0.00000  1.0000
  Li  Li18      1.0  0.50000  0.50000  0.50000  1.0000
  Li  Li19      1.0  0.50000  0.50000  0.00000  1.0000
  Li  Li20      1.0  0.50000  0.00000  0.50000  1.0000
  O   O1        1.0  0.94800  0.48100  0.19000  1.0000
  O   O2        1.0  0.05230  0.98100  0.31000  1.0000
  O   O3        1.0  0.05230  0.51900  0.81000  1.0000
  O   O4        1.0  0.94800  0.01930  0.69000  1.0000
  O   O5        1.0  0.73300  0.27700  0.21300  1.0000
  O   O6        1.0  0.26700  0.77700  0.28700  1.0000
  O   O7        1.0  0.26700  0.72300  0.78700  1.0000
  O   O8        1.0  0.73300  0.22300  0.71300  1.0000
  O   O9        1.0  0.75300  0.43900  0.39500  1.0000
  O   O10       1.0  0.24700  0.93900  0.10500  1.0000
  O   O11       1.0  0.24700  0.56100  0.60500  1.0000
  O   O12       1.0  0.75300  0.06060  0.89500  1.0000
  O   O13       1.0  0.54400  0.49000  0.19100  1.0000
  O   O14       1.0  0.45600  0.99000  0.30900  1.0000
  O   O15       1.0  0.45600  0.51000  0.80900  1.0000
  O   O16       1.0  0.54400  0.01050  0.69100  1.0000
  O   O17       1.0  0.23700  0.24400  0.82300  1.0000
  O   O18       1.0  0.76300  0.74400  0.67700  1.0000
  O   O19       1.0  0.76300  0.75600  0.17700  1.0000
  O   O20       1.0  0.23700  0.25600  0.32300  1.0000
  O   O21       1.0  0.44700  0.17900  0.03230  1.0000
  O   O22       1.0  0.55300  0.68000  0.46800  1.0000
  O   O23       1.0  0.55300  0.82000  0.96800  1.0000
  O   O24       1.0  0.44700  0.32100  0.53200  1.0000
  O   O25       1.0  0.05210  0.18000  0.04150  1.0000
  O   O26       1.0  0.94800  0.68000  0.45900  1.0000
  O   O27       1.0  0.94800  0.82000  0.95900  1.0000
  O   O28       1.0  0.05210  0.32000  0.54100  1.0000
  O   O29       1.0  0.24800  0.38400  0.02480  1.0000
  O   O30       1.0  0.75200  0.88400  0.47500  1.0000
  O   O31       1.0  0.75200  0.61600  0.97500  1.0000
  O   O32       1.0  0.24800  0.11600  0.52500  1.0000
  P   P1        1.0  0.73800  0.41800  0.24400  1.0000
  P   P2        1.0  0.26200  0.91800  0.25600  1.0000
  P   P3        1.0  0.26200  0.58200  0.75600  1.0000
  P   P4        1.0  0.73800  0.08220  0.74400  1.0000
  P   P5        1.0  0.25200  0.24400  0.97500  1.0000
  P   P6        1.0  0.74800  0.74400  0.52500  1.0000
  P   P7        1.0  0.74800  0.75600  0.02500  1.0000
  P   P8        1.0  0.25200  0.25600  0.47500  1.0000
  V   V1        1.0  0.00000  0.00000  0.00000  1.0000
  V   V2        1.0  0.00000  0.50000  0.50000  1.0000
  V   V3        1.0  0.00000  0.50000  0.00000  1.0000
  V   V4        1.0  0.00000  0.00000  0.50000  1.0000
