data_image0
_chemical_formula_structural       Ca4Ge4O20Ti4
_chemical_formula_sum              "Ca4 Ge4 O20 Ti4"
_cell_length_a       7.02438
_cell_length_b       8.83453
_cell_length_c       6.50522
_cell_angle_alpha    90
_cell_angle_beta     112.988
_cell_angle_gamma    90

_space_group_name_H-M_alt    "P 1"
_space_group_IT_number       1

loop_
  _space_group_symop_operation_xyz
  'x, y, z'

loop_
  _atom_site_type_symbol
  _atom_site_label
  _atom_site_symmetry_multiplicity
  _atom_site_fract_x
  _atom_site_fract_y
  _atom_site_fract_z
  _atom_site_occupancy
  Ca  Ca1       1.0  0.24600  0.41800  0.25100  1.0000
  Ca  Ca2       1.0  0.25400  0.91800  0.74900  1.0000
  Ca  Ca3       1.0  0.75400  0.58200  0.74900  1.0000
  Ca  Ca4       1.0  0.74600  0.08190  0.25100  1.0000
  Ge  Ge1       1.0  0.74800  0.43400  0.24900  1.0000
  Ge  Ge2       1.0  0.75200  0.93400  0.75100  1.0000
  Ge  Ge3       1.0  0.25200  0.56600  0.75100  1.0000
  Ge  Ge4       1.0  0.24800  0.06610  0.24900  1.0000
  O   O1        1.0  0.61200  0.04420  0.86700  1.0000
  O   O2        1.0  0.88800  0.54400  0.13300  1.0000
  O   O3        1.0  0.38800  0.95600  0.13300  1.0000
  O   O4        1.0  0.11200  0.45600  0.86700  1.0000
  O   O5        1.0  0.39200  0.45700  0.63500  1.0000
  O   O6        1.0  0.10800  0.95700  0.36500  1.0000
  O   O7        1.0  0.60800  0.54300  0.36500  1.0000
  O   O8        1.0  0.89200  0.04300  0.63500  1.0000
  O   O9        1.0  0.06610  0.19000  0.06280  1.0000
  O   O10       1.0  0.43400  0.69000  0.93700  1.0000
  O   O11       1.0  0.93400  0.81000  0.93700  1.0000
  O   O12       1.0  0.56600  0.31000  0.06280  1.0000
  O   O13       1.0  0.93500  0.31100  0.43400  1.0000
  O   O14       1.0  0.56500  0.81100  0.56600  1.0000
  O   O15       1.0  0.06520  0.68900  0.56600  1.0000
  O   O16       1.0  0.43500  0.18900  0.43400  1.0000
  O   O17       1.0  0.75200  0.32400  0.74700  1.0000
  O   O18       1.0  0.74800  0.82400  0.25300  1.0000
  O   O19       1.0  0.24800  0.67600  0.25300  1.0000
  O   O20       1.0  0.25200  0.17600  0.74700  1.0000
  Ti  Ti1       1.0  0.50400  0.25100  0.74900  1.0000
  Ti  Ti2       1.0  0.99600  0.75100  0.25100  1.0000
  Ti  Ti3       1.0  0.49600  0.74900  0.25100  1.0000
  Ti  Ti4       1.0  0.00433  0.24900  0.74900  1.0000
