data_image0
_chemical_formula_structural       C4Eu8I9N7
_chemical_formula_sum              "C4 Eu8 I9 N7"
_cell_length_a       10.4186
_cell_length_b       10.4186
_cell_length_c       7.62614
_cell_angle_alpha    89.998
_cell_angle_beta     90.002
_cell_angle_gamma    120.021

_space_group_name_H-M_alt    "P 1"
_space_group_IT_number       1

loop_
  _space_group_symop_operation_xyz
  'x, y, z'

loop_
  _atom_site_type_symbol
  _atom_site_label
  _atom_site_symmetry_multiplicity
  _atom_site_fract_x
  _atom_site_fract_y
  _atom_site_fract_z
  _atom_site_occupancy
  C   C1        1.0  0.33300  0.66700  0.86300  1.0000
  C   C2        1.0  0.16500  0.83500  0.38400  1.0000
  C   C3        1.0  0.16500  0.33000  0.38400  1.0000
  C   C4        1.0  0.67000  0.83500  0.38400  1.0000
  Eu  Eu1       1.0  0.00000  0.00000  0.21500  1.0000
  Eu  Eu2       1.0  0.86600  0.13400  0.61000  1.0000
  Eu  Eu3       1.0  0.86600  0.73200  0.61000  1.0000
  Eu  Eu4       1.0  0.26800  0.13400  0.61000  1.0000
  Eu  Eu5       1.0  0.46400  0.53600  0.13600  1.0000
  Eu  Eu6       1.0  0.46400  0.92800  0.13600  1.0000
  Eu  Eu7       1.0  0.07220  0.53600  0.13600  1.0000
  Eu  Eu8       1.0  0.33300  0.66700  0.52700  1.0000
  I   I1        1.0  0.13100  0.86900  0.91100  1.0000
  I   I2        1.0  0.13100  0.26300  0.91100  1.0000
  I   I3        1.0  0.73700  0.86900  0.91100  1.0000
  I   I4        1.0  0.51900  0.48100  0.68200  1.0000
  I   I5        1.0  0.51900  0.03850  0.68200  1.0000
  I   I6        1.0  0.96200  0.48100  0.68200  1.0000
  I   I7        1.0  0.79700  0.20300  0.21400  1.0000
  I   I8        1.0  0.79700  0.59400  0.21400  1.0000
  I   I9        1.0  0.40600  0.20300  0.21400  1.0000
  N   N1        1.0  0.22800  0.77200  0.32000  1.0000
  N   N2        1.0  0.22800  0.45600  0.32000  1.0000
  N   N3        1.0  0.54400  0.77200  0.32000  1.0000
  N   N4        1.0  0.10200  0.89800  0.44600  1.0000
  N   N5        1.0  0.10200  0.20300  0.44600  1.0000
  N   N6        1.0  0.79700  0.89800  0.44600  1.0000
  N   N7        1.0  0.33300  0.66700  0.01800  1.0000
