data_image0
_chemical_formula_structural       Ba2Co8O14Yb2
_chemical_formula_sum              "Ba2 Co8 O14 Yb2"
_cell_length_a       6.30905
_cell_length_b       6.30905
_cell_length_c       9.73401
_cell_angle_alpha    89.5544
_cell_angle_beta     89.5544
_cell_angle_gamma    121.135

_space_group_name_H-M_alt    "P 1"
_space_group_IT_number       1

loop_
  _space_group_symop_operation_xyz
  'x, y, z'

loop_
  _atom_site_type_symbol
  _atom_site_label
  _atom_site_symmetry_multiplicity
  _atom_site_fract_x
  _atom_site_fract_y
  _atom_site_fract_z
  _atom_site_occupancy
  Ba  Ba1       1.0  0.66500  0.33500  0.50000  1.0000
  Ba  Ba2       1.0  0.33500  0.66500  0.00010  1.0000
  Co  Co1       1.0  0.99600  0.99400  0.44400  1.0000
  Co  Co2       1.0  0.99400  0.99600  0.94400  1.0000
  Co  Co3       1.0  0.14000  0.80600  0.69200  1.0000
  Co  Co4       1.0  0.20000  0.35300  0.68800  1.0000
  Co  Co5       1.0  0.65700  0.85900  0.68200  1.0000
  Co  Co6       1.0  0.80600  0.14000  0.19200  1.0000
  Co  Co7       1.0  0.85900  0.65700  0.18200  1.0000
  Co  Co8       1.0  0.35300  0.20000  0.18800  1.0000
  O   O1        1.0  0.09230  0.78300  0.49500  1.0000
  O   O2        1.0  0.23100  0.31900  0.49600  1.0000
  O   O3        1.0  0.68500  0.93000  0.48600  1.0000
  O   O4        1.0  0.78300  0.09230  0.99500  1.0000
  O   O5        1.0  0.93000  0.68500  0.98600  1.0000
  O   O6        1.0  0.31900  0.23100  0.99600  1.0000
  O   O7        1.0  0.00793  0.00243  0.24600  1.0000
  O   O8        1.0  0.00243  0.00793  0.74600  1.0000
  O   O9        1.0  0.52700  0.51600  0.73500  1.0000
  O   O10       1.0  0.46800  0.98700  0.75000  1.0000
  O   O11       1.0  0.99300  0.45900  0.72900  1.0000
  O   O12       1.0  0.51600  0.52700  0.23500  1.0000
  O   O13       1.0  0.45900  0.99300  0.22900  1.0000
  O   O14       1.0  0.98700  0.46800  0.25000  1.0000
  Yb  Yb1       1.0  0.66600  0.32800  0.87600  1.0000
  Yb  Yb2       1.0  0.32800  0.66600  0.37600  1.0000
