data_image0
_chemical_formula_structural       As12H8Li4O36
_chemical_formula_sum              "As12 H8 Li4 O36"
_cell_length_a       9.54076
_cell_length_b       8.27441
_cell_length_c       9.83811
_cell_angle_alpha    90
_cell_angle_beta     118.17
_cell_angle_gamma    90

_space_group_name_H-M_alt    "P 1"
_space_group_IT_number       1

loop_
  _space_group_symop_operation_xyz
  'x, y, z'

loop_
  _atom_site_type_symbol
  _atom_site_label
  _atom_site_symmetry_multiplicity
  _atom_site_fract_x
  _atom_site_fract_y
  _atom_site_fract_z
  _atom_site_occupancy
  As  As1       1.0  0.50200  0.62400  0.09590  1.0000
  As  As2       1.0  0.99800  0.12400  0.40400  1.0000
  As  As3       1.0  0.49800  0.37600  0.90400  1.0000
  As  As4       1.0  0.00163  0.87600  0.59600  1.0000
  As  As5       1.0  0.22200  0.75300  0.14000  1.0000
  As  As6       1.0  0.27800  0.25300  0.36000  1.0000
  As  As7       1.0  0.77800  0.24700  0.86000  1.0000
  As  As8       1.0  0.72200  0.74700  0.64000  1.0000
  As  As9       1.0  0.69100  0.31900  0.24800  1.0000
  As  As10      1.0  0.80900  0.81900  0.25200  1.0000
  As  As11      1.0  0.30900  0.68100  0.75200  1.0000
  As  As12      1.0  0.19100  0.18100  0.74800  1.0000
  H   H1        1.0  0.10300  0.75700  0.28900  1.0000
  H   H2        1.0  0.39700  0.25700  0.21100  1.0000
  H   H3        1.0  0.89700  0.24300  0.71100  1.0000
  H   H4        1.0  0.60300  0.74300  0.78900  1.0000
  H   H5        1.0  0.20400  0.94400  0.96800  1.0000
  H   H6        1.0  0.29600  0.44400  0.53200  1.0000
  H   H7        1.0  0.79600  0.05640  0.03180  1.0000
  H   H8        1.0  0.70400  0.55600  0.46800  1.0000
  Li  Li1       1.0  0.13200  0.40300  0.99600  1.0000
  Li  Li2       1.0  0.36800  0.90300  0.50400  1.0000
  Li  Li3       1.0  0.86800  0.59700  0.00440  1.0000
  Li  Li4       1.0  0.63200  0.09730  0.49600  1.0000
  O   O1        1.0  0.40900  0.42400  0.03160  1.0000
  O   O2        1.0  0.09090  0.92400  0.46800  1.0000
  O   O3        1.0  0.59100  0.57600  0.96800  1.0000
  O   O4        1.0  0.90900  0.07550  0.53200  1.0000
  O   O5        1.0  0.41300  0.66800  0.22000  1.0000
  O   O6        1.0  0.08700  0.16800  0.28000  1.0000
  O   O7        1.0  0.58700  0.33200  0.78000  1.0000
  O   O8        1.0  0.91300  0.83200  0.72000  1.0000
  O   O9        1.0  0.21500  0.78900  0.31100  1.0000
  O   O10       1.0  0.28500  0.28900  0.18900  1.0000
  O   O11       1.0  0.78500  0.21100  0.68900  1.0000
  O   O12       1.0  0.71500  0.71100  0.81100  1.0000
  O   O13       1.0  0.22100  0.94900  0.07600  1.0000
  O   O14       1.0  0.27900  0.44900  0.42400  1.0000
  O   O15       1.0  0.77900  0.05090  0.92400  1.0000
  O   O16       1.0  0.72100  0.55100  0.57600  1.0000
  O   O17       1.0  0.08210  0.62900  0.01940  1.0000
  O   O18       1.0  0.41800  0.12900  0.48100  1.0000
  O   O19       1.0  0.91800  0.37100  0.98100  1.0000
  O   O20       1.0  0.58200  0.87100  0.51900  1.0000
  O   O21       1.0  0.66900  0.52700  0.27000  1.0000
  O   O22       1.0  0.83100  0.02750  0.23000  1.0000
  O   O23       1.0  0.33100  0.47300  0.73000  1.0000
  O   O24       1.0  0.16900  0.97300  0.77000  1.0000
  O   O25       1.0  0.67000  0.27800  0.06570  1.0000
  O   O26       1.0  0.83000  0.77800  0.43400  1.0000
  O   O27       1.0  0.33000  0.72200  0.93400  1.0000
  O   O28       1.0  0.17000  0.22200  0.56600  1.0000
  O   O29       1.0  0.89500  0.31900  0.36300  1.0000
  O   O30       1.0  0.60500  0.81900  0.13700  1.0000
  O   O31       1.0  0.10500  0.68100  0.63700  1.0000
  O   O32       1.0  0.39500  0.18100  0.86300  1.0000
  O   O33       1.0  0.58200  0.20400  0.30100  1.0000
  O   O34       1.0  0.91800  0.70400  0.19900  1.0000
  O   O35       1.0  0.41800  0.79600  0.69900  1.0000
  O   O36       1.0  0.08210  0.29600  0.80100  1.0000
