data_image0
_chemical_formula_structural       B42H36K2
_chemical_formula_sum              "B42 H36 K2"
_cell_length_a       6.89069
_cell_length_b       6.89069
_cell_length_c       16.3225
_cell_angle_alpha    87.0966
_cell_angle_beta     92.9034
_cell_angle_gamma    120.888

_space_group_name_H-M_alt    "P 1"
_space_group_IT_number       1

loop_
  _space_group_symop_operation_xyz
  'x, y, z'

loop_
  _atom_site_type_symbol
  _atom_site_label
  _atom_site_symmetry_multiplicity
  _atom_site_fract_x
  _atom_site_fract_y
  _atom_site_fract_z
  _atom_site_occupancy
  B   B1        1.0  0.60900  0.09230  0.39600  1.0000
  B   B2        1.0  0.09230  0.60900  0.60400  1.0000
  B   B3        1.0  0.67100  0.35800  0.42600  1.0000
  B   B4        1.0  0.35800  0.67100  0.57400  1.0000
  B   B5        1.0  0.45600  0.36800  0.15300  1.0000
  B   B6        1.0  0.36800  0.45600  0.84700  1.0000
  B   B7        1.0  0.45000  0.21200  0.35100  1.0000
  B   B8        1.0  0.21200  0.45000  0.64900  1.0000
  B   B9        1.0  0.91900  0.73200  0.17700  1.0000
  B   B10       1.0  0.73200  0.91900  0.82300  1.0000
  B   B11       1.0  0.91700  0.56900  0.37300  1.0000
  B   B12       1.0  0.56900  0.91700  0.62700  1.0000
  B   B13       1.0  0.81300  0.12900  0.32300  1.0000
  B   B14       1.0  0.12900  0.81300  0.67700  1.0000
  B   B15       1.0  0.89000  0.30800  0.40900  1.0000
  B   B16       1.0  0.30800  0.89000  0.59100  1.0000
  B   B17       1.0  0.62300  0.35500  0.07570  1.0000
  B   B18       1.0  0.35500  0.62300  0.92400  1.0000
  B   B19       1.0  0.82300  0.29500  0.12600  1.0000
  B   B20       1.0  0.29500  0.82300  0.87400  1.0000
  B   B21       1.0  0.90300  0.57500  0.08970  1.0000
  B   B22       1.0  0.57500  0.90300  0.91000  1.0000
  B   B23       1.0  0.68100  0.62000  0.10700  1.0000
  B   B24       1.0  0.62000  0.68100  0.89300  1.0000
  B   B25       1.0  0.53100  0.05680  0.29200  1.0000
  B   B26       1.0  0.05680  0.53100  0.70800  1.0000
  B   B27       1.0  0.63900  0.51000  0.34400  1.0000
  B   B28       1.0  0.51000  0.63900  0.65600  1.0000
  B   B29       1.0  0.01190  0.42400  0.31500  1.0000
  B   B30       1.0  0.42400  0.01190  0.68500  1.0000
  B   B31       1.0  0.54100  0.16200  0.15900  1.0000
  B   B32       1.0  0.16200  0.54100  0.84100  1.0000
  B   B33       1.0  0.84900  0.55200  0.26600  1.0000
  B   B34       1.0  0.55200  0.84900  0.73400  1.0000
  B   B35       1.0  0.78500  0.27500  0.23400  1.0000
  B   B36       1.0  0.27500  0.78500  0.76600  1.0000
  B   B37       1.0  0.55500  0.32400  0.25200  1.0000
  B   B38       1.0  0.32400  0.55500  0.74800  1.0000
  B   B39       1.0  0.63800  0.61200  0.21100  1.0000
  B   B40       1.0  0.61200  0.63800  0.78900  1.0000
  B   B41       1.0  0.01690  0.53800  0.18300  1.0000
  B   B42       1.0  0.53800  0.01690  0.81700  1.0000
  H   H1        1.0  0.05720  0.74500  0.40100  1.0000
  H   H2        1.0  0.74500  0.05720  0.59900  1.0000
  H   H3        1.0  0.57100  0.72600  0.23400  1.0000
  H   H4        1.0  0.72600  0.57100  0.76600  1.0000
  H   H5        1.0  0.41300  0.96800  0.14600  1.0000
  H   H6        1.0  0.96800  0.41300  0.85400  1.0000
  H   H7        1.0  0.03180  0.66200  0.03480  1.0000
  H   H8        1.0  0.66200  0.03180  0.96500  1.0000
  H   H9        1.0  0.04810  0.93100  0.18100  1.0000
  H   H10       1.0  0.93100  0.04810  0.81900  1.0000
  H   H11       1.0  0.88400  0.18100  0.09700  1.0000
  H   H12       1.0  0.18100  0.88400  0.90300  1.0000
  H   H13       1.0  0.26200  0.31300  0.14200  1.0000
  H   H14       1.0  0.31300  0.26200  0.85800  1.0000
  H   H15       1.0  0.51800  0.92400  0.43800  1.0000
  H   H16       1.0  0.92400  0.51800  0.56200  1.0000
  H   H17       1.0  0.62400  0.39000  0.49200  1.0000
  H   H18       1.0  0.39000  0.62400  0.50800  1.0000
  H   H19       1.0  0.01750  0.30800  0.46200  1.0000
  H   H20       1.0  0.30800  0.01750  0.53800  1.0000
  H   H21       1.0  0.54300  0.27900  0.00983  1.0000
  H   H22       1.0  0.27900  0.54300  0.99000  1.0000
  H   H23       1.0  0.64100  0.74500  0.06680  1.0000
  H   H24       1.0  0.74500  0.64100  0.93300  1.0000
  H   H25       1.0  0.87600  0.99800  0.31800  1.0000
  H   H26       1.0  0.99800  0.87600  0.68200  1.0000
  H   H27       1.0  0.25500  0.13800  0.36600  1.0000
  H   H28       1.0  0.13800  0.25500  0.63400  1.0000
  H   H29       1.0  0.57700  0.63700  0.35700  1.0000
  H   H30       1.0  0.63700  0.57700  0.64300  1.0000
  H   H31       1.0  0.20700  0.49200  0.30800  1.0000
  H   H32       1.0  0.49200  0.20700  0.69200  1.0000
  H   H33       1.0  0.39300  0.87400  0.27000  1.0000
  H   H34       1.0  0.87400  0.39300  0.73000  1.0000
  H   H35       1.0  0.21200  0.60100  0.18600  1.0000
  H   H36       1.0  0.60100  0.21200  0.81400  1.0000
  K   K1        1.0  0.07990  0.07990  0.00000  1.0000
  K   K2        1.0  0.87200  0.87200  0.50000  1.0000
