data_image0
_chemical_formula_structural       B8H32K4Li4
_chemical_formula_sum              "B8 H32 K4 Li4"
_cell_length_a       7.56571
_cell_length_b       4.33616
_cell_length_c       13.0624
_cell_angle_alpha    90
_cell_angle_beta     90
_cell_angle_gamma    90

_space_group_name_H-M_alt    "P 1"
_space_group_IT_number       1

loop_
  _space_group_symop_operation_xyz
  'x, y, z'

loop_
  _atom_site_type_symbol
  _atom_site_label
  _atom_site_symmetry_multiplicity
  _atom_site_fract_x
  _atom_site_fract_y
  _atom_site_fract_z
  _atom_site_occupancy
  B   B1        1.0  0.92900  0.25000  0.23900  1.0000
  B   B2        1.0  0.57100  0.75000  0.73900  1.0000
  B   B3        1.0  0.42900  0.25000  0.26100  1.0000
  B   B4        1.0  0.07150  0.75000  0.76100  1.0000
  B   B5        1.0  0.25400  0.25000  0.54200  1.0000
  B   B6        1.0  0.24600  0.75000  0.04240  1.0000
  B   B7        1.0  0.75400  0.25000  0.95800  1.0000
  B   B8        1.0  0.74600  0.75000  0.45800  1.0000
  H   H1        1.0  0.22700  0.25000  0.63500  1.0000
  H   H2        1.0  0.27300  0.75000  0.13500  1.0000
  H   H3        1.0  0.72700  0.25000  0.86500  1.0000
  H   H4        1.0  0.77300  0.75000  0.36500  1.0000
  H   H5        1.0  0.11200  0.25000  0.49700  1.0000
  H   H6        1.0  0.38800  0.75000  0.99700  1.0000
  H   H7        1.0  0.61200  0.25000  0.00325  1.0000
  H   H8        1.0  0.88800  0.75000  0.50300  1.0000
  H   H9        1.0  0.34300  0.47500  0.51700  1.0000
  H   H10       1.0  0.15700  0.52500  0.01730  1.0000
  H   H11       1.0  0.84300  0.02550  0.98300  1.0000
  H   H12       1.0  0.65700  0.97500  0.48300  1.0000
  H   H13       1.0  0.65700  0.52500  0.48300  1.0000
  H   H14       1.0  0.84300  0.47500  0.98300  1.0000
  H   H15       1.0  0.15700  0.97500  0.01730  1.0000
  H   H16       1.0  0.34300  0.02550  0.51700  1.0000
  H   H17       1.0  0.95600  0.25000  0.33200  1.0000
  H   H18       1.0  0.54400  0.75000  0.83200  1.0000
  H   H19       1.0  0.45600  0.25000  0.16800  1.0000
  H   H20       1.0  0.04350  0.75000  0.66800  1.0000
  H   H21       1.0  0.99100  0.48400  0.20100  1.0000
  H   H22       1.0  0.50900  0.51600  0.70100  1.0000
  H   H23       1.0  0.49100  0.01610  0.29900  1.0000
  H   H24       1.0  0.00916  0.98400  0.79900  1.0000
  H   H25       1.0  0.00916  0.51600  0.79900  1.0000
  H   H26       1.0  0.49100  0.48400  0.29900  1.0000
  H   H27       1.0  0.50900  0.98400  0.70100  1.0000
  H   H28       1.0  0.99100  0.01610  0.20100  1.0000
  H   H29       1.0  0.77000  0.25000  0.22300  1.0000
  H   H30       1.0  0.73000  0.75000  0.72300  1.0000
  H   H31       1.0  0.27000  0.25000  0.27700  1.0000
  H   H32       1.0  0.23000  0.75000  0.77700  1.0000
  K   K1        1.0  0.33900  0.25000  0.86700  1.0000
  K   K2        1.0  0.16100  0.75000  0.36700  1.0000
  K   K3        1.0  0.83900  0.25000  0.63300  1.0000
  K   K4        1.0  0.66100  0.75000  0.13300  1.0000
  Li  Li1       1.0  0.19100  0.25000  0.13300  1.0000
  Li  Li2       1.0  0.30900  0.75000  0.63300  1.0000
  Li  Li3       1.0  0.69100  0.25000  0.36700  1.0000
  Li  Li4       1.0  0.80900  0.75000  0.86700  1.0000
