data_image0
_chemical_formula_structural       Pt8Sb11Sn14
_chemical_formula_sum              "Pt8 Sb11 Sn14"
_cell_length_a       9.42341
_cell_length_b       9.45913
_cell_length_c       9.39402
_cell_angle_alpha    90.2541
_cell_angle_beta     90.1815
_cell_angle_gamma    90.2864

_space_group_name_H-M_alt    "P 1"
_space_group_IT_number       1

loop_
  _space_group_symop_operation_xyz
  'x, y, z'

loop_
  _atom_site_type_symbol
  _atom_site_label
  _atom_site_symmetry_multiplicity
  _atom_site_fract_x
  _atom_site_fract_y
  _atom_site_fract_z
  _atom_site_occupancy
  Pt  Pt1       1.0  0.74600  0.24600  0.24500  1.0000
  Pt  Pt2       1.0  0.74500  0.24500  0.75700  1.0000
  Pt  Pt3       1.0  0.74600  0.74400  0.74400  1.0000
  Pt  Pt4       1.0  0.74800  0.74900  0.24300  1.0000
  Pt  Pt5       1.0  0.24300  0.75100  0.24800  1.0000
  Pt  Pt6       1.0  0.24400  0.75100  0.74400  1.0000
  Pt  Pt7       1.0  0.25300  0.24500  0.75000  1.0000
  Pt  Pt8       1.0  0.24600  0.25200  0.25400  1.0000
  Sb  Sb1       1.0  0.49700  0.34600  0.84900  1.0000
  Sb  Sb2       1.0  0.15400  0.65400  0.99500  1.0000
  Sb  Sb3       1.0  0.34700  0.84200  0.49600  1.0000
  Sb  Sb4       1.0  0.65100  0.99300  0.84400  1.0000
  Sb  Sb5       1.0  0.64700  0.99600  0.15200  1.0000
  Sb  Sb6       1.0  0.99400  0.84600  0.65200  1.0000
  Sb  Sb7       1.0  0.34600  0.15400  0.50100  1.0000
  Sb  Sb8       1.0  0.49600  0.34800  0.16300  1.0000
  Sb  Sb9       1.0  0.84400  0.65100  0.99400  1.0000
  Sb  Sb10      1.0  0.15500  0.50300  0.34700  1.0000
  Sb  Sb11      1.0  0.99400  0.15500  0.34600  1.0000
  Sn  Sn1       1.0  0.34000  0.99700  0.84700  1.0000
  Sn  Sn2       1.0  0.99500  0.84900  0.33900  1.0000
  Sn  Sn3       1.0  0.99700  0.15300  0.66300  1.0000
  Sn  Sn4       1.0  0.49400  0.65500  0.15800  1.0000
  Sn  Sn5       1.0  0.57000  0.55400  0.52100  1.0000
  Sn  Sn6       1.0  0.33200  0.00136  0.15300  1.0000
  Sn  Sn7       1.0  0.65200  0.17200  0.50100  1.0000
  Sn  Sn8       1.0  0.85400  0.48900  0.66200  1.0000
  Sn  Sn9       1.0  0.15400  0.34000  0.99900  1.0000
  Sn  Sn10      1.0  0.84500  0.49800  0.33900  1.0000
  Sn  Sn11      1.0  0.66100  0.86200  0.49300  1.0000
  Sn  Sn12      1.0  0.49300  0.65500  0.84300  1.0000
  Sn  Sn13      1.0  0.84900  0.34100  0.00065  1.0000
  Sn  Sn14      1.0  0.16500  0.49500  0.65300  1.0000
