data_image0
_chemical_formula_structural       LiN2Na5
_chemical_formula_sum              "Li1 N2 Na5"
_cell_length_a       7.54186
_cell_length_b       4.33817
_cell_length_c       4.33693
_cell_angle_alpha    89.8725
_cell_angle_beta     90.0787
_cell_angle_gamma    89.7762

_space_group_name_H-M_alt    "P 1"
_space_group_IT_number       1

loop_
  _space_group_symop_operation_xyz
  'x, y, z'

loop_
  _atom_site_type_symbol
  _atom_site_label
  _atom_site_symmetry_multiplicity
  _atom_site_fract_x
  _atom_site_fract_y
  _atom_site_fract_z
  _atom_site_occupancy
  Li  Li1       1.0  0.21400  0.00252  0.26900  1.0000
  N   N1        1.0  0.21200  0.50600  0.26900  1.0000
  N   N2        1.0  0.71300  0.49600  0.76900  1.0000
  Na  Na1       1.0  0.54400  0.59200  0.27000  1.0000
  Na  Na2       1.0  0.88400  0.39100  0.27000  1.0000
  Na  Na3       1.0  0.37000  0.39200  0.76900  1.0000
  Na  Na4       1.0  0.04440  0.62700  0.77000  1.0000
  Na  Na5       1.0  0.70200  0.99600  0.77200  1.0000
