data_image0
_chemical_formula_structural       O20Te4Tl4V4
_chemical_formula_sum              "O20 Te4 Tl4 V4"
_cell_length_a       7.11315
_cell_length_b       8.28188
_cell_length_c       7.41897
_cell_angle_alpha    90
_cell_angle_beta     90
_cell_angle_gamma    90

_space_group_name_H-M_alt    "P 1"
_space_group_IT_number       1

loop_
  _space_group_symop_operation_xyz
  'x, y, z'

loop_
  _atom_site_type_symbol
  _atom_site_label
  _atom_site_symmetry_multiplicity
  _atom_site_fract_x
  _atom_site_fract_y
  _atom_site_fract_z
  _atom_site_occupancy
  O   O1        1.0  0.73800  0.06020  0.16500  1.0000
  O   O2        1.0  0.26200  0.94000  0.66500  1.0000
  O   O3        1.0  0.76200  0.56000  0.66500  1.0000
  O   O4        1.0  0.23800  0.44000  0.16500  1.0000
  O   O5        1.0  0.89600  0.45500  0.36300  1.0000
  O   O6        1.0  0.10400  0.54500  0.86300  1.0000
  O   O7        1.0  0.60400  0.95500  0.86300  1.0000
  O   O8        1.0  0.39600  0.04520  0.36300  1.0000
  O   O9        1.0  0.55400  0.32700  0.26200  1.0000
  O   O10       1.0  0.44600  0.67300  0.76200  1.0000
  O   O11       1.0  0.94600  0.82700  0.76200  1.0000
  O   O12       1.0  0.05410  0.17300  0.26200  1.0000
  O   O13       1.0  0.14200  0.63300  0.55000  1.0000
  O   O14       1.0  0.85800  0.36700  0.04980  1.0000
  O   O15       1.0  0.35800  0.13300  0.04980  1.0000
  O   O16       1.0  0.64200  0.86700  0.55000  1.0000
  O   O17       1.0  0.77500  0.18500  0.50700  1.0000
  O   O18       1.0  0.22500  0.81500  0.00729  1.0000
  O   O19       1.0  0.72500  0.68500  0.00729  1.0000
  O   O20       1.0  0.27500  0.31500  0.50700  1.0000
  Te  Te1       1.0  0.00022  0.44500  0.61400  1.0000
  Te  Te2       1.0  0.00000  0.55500  0.11400  1.0000
  Te  Te3       1.0  0.50000  0.94500  0.11400  1.0000
  Te  Te4       1.0  0.50000  0.05540  0.61400  1.0000
  Tl  Tl1       1.0  0.02140  0.11300  0.88700  1.0000
  Tl  Tl2       1.0  0.97900  0.88700  0.38700  1.0000
  Tl  Tl3       1.0  0.47900  0.61300  0.38700  1.0000
  Tl  Tl4       1.0  0.52100  0.38700  0.88700  1.0000
  V   V1        1.0  0.77500  0.25300  0.28400  1.0000
  V   V2        1.0  0.22500  0.74700  0.78400  1.0000
  V   V3        1.0  0.72500  0.75300  0.78400  1.0000
  V   V4        1.0  0.27500  0.24700  0.28400  1.0000
