data_image0
_chemical_formula_structural       Na12O36P12
_chemical_formula_sum              "Na12 O36 P12"
_cell_length_a       7.80343
_cell_length_b       12.4637
_cell_length_c       7.18637
_cell_angle_alpha    90
_cell_angle_beta     90
_cell_angle_gamma    90

_space_group_name_H-M_alt    "P 1"
_space_group_IT_number       1

loop_
  _space_group_symop_operation_xyz
  'x, y, z'

loop_
  _atom_site_type_symbol
  _atom_site_label
  _atom_site_symmetry_multiplicity
  _atom_site_fract_x
  _atom_site_fract_y
  _atom_site_fract_z
  _atom_site_occupancy
  Na  Na1       1.0  0.49500  0.07130  0.32000  1.0000
  Na  Na2       1.0  0.50500  0.57100  0.18000  1.0000
  Na  Na3       1.0  0.00454  0.42900  0.82000  1.0000
  Na  Na4       1.0  0.99500  0.92900  0.68000  1.0000
  Na  Na5       1.0  0.50500  0.92900  0.68000  1.0000
  Na  Na6       1.0  0.49500  0.42900  0.82000  1.0000
  Na  Na7       1.0  0.99500  0.57100  0.18000  1.0000
  Na  Na8       1.0  0.00454  0.07130  0.32000  1.0000
  Na  Na9       1.0  0.75000  0.24700  0.06640  1.0000
  Na  Na10      1.0  0.25000  0.74700  0.43400  1.0000
  Na  Na11      1.0  0.75000  0.25300  0.56600  1.0000
  Na  Na12      1.0  0.25000  0.75300  0.93400  1.0000
  O   O1        1.0  0.93200  0.25500  0.81700  1.0000
  O   O2        1.0  0.06810  0.75500  0.68300  1.0000
  O   O3        1.0  0.56800  0.24500  0.31700  1.0000
  O   O4        1.0  0.43200  0.74500  0.18300  1.0000
  O   O5        1.0  0.06810  0.74500  0.18300  1.0000
  O   O6        1.0  0.93200  0.24500  0.31700  1.0000
  O   O7        1.0  0.43200  0.75500  0.68300  1.0000
  O   O8        1.0  0.56800  0.25500  0.81700  1.0000
  O   O9        1.0  0.05600  0.10300  0.61500  1.0000
  O   O10       1.0  0.94400  0.60300  0.88500  1.0000
  O   O11       1.0  0.44400  0.39700  0.11500  1.0000
  O   O12       1.0  0.55600  0.89700  0.38500  1.0000
  O   O13       1.0  0.94400  0.89700  0.38500  1.0000
  O   O14       1.0  0.05600  0.39700  0.11500  1.0000
  O   O15       1.0  0.55600  0.60300  0.88500  1.0000
  O   O16       1.0  0.44400  0.10300  0.61500  1.0000
  O   O17       1.0  0.09010  0.10300  0.96700  1.0000
  O   O18       1.0  0.91000  0.60300  0.53300  1.0000
  O   O19       1.0  0.41000  0.39700  0.46700  1.0000
  O   O20       1.0  0.59000  0.89700  0.03260  1.0000
  O   O21       1.0  0.91000  0.89700  0.03260  1.0000
  O   O22       1.0  0.09010  0.39700  0.46700  1.0000
  O   O23       1.0  0.59000  0.60300  0.53300  1.0000
  O   O24       1.0  0.41000  0.10300  0.96700  1.0000
  O   O25       1.0  0.25000  0.23900  0.77800  1.0000
  O   O26       1.0  0.75000  0.73900  0.72200  1.0000
  O   O27       1.0  0.25000  0.26100  0.27800  1.0000
  O   O28       1.0  0.75000  0.76100  0.22200  1.0000
  O   O29       1.0  0.75000  0.06390  0.14600  1.0000
  O   O30       1.0  0.25000  0.56400  0.35400  1.0000
  O   O31       1.0  0.75000  0.43600  0.64600  1.0000
  O   O32       1.0  0.25000  0.93600  0.85400  1.0000
  O   O33       1.0  0.25000  0.99400  0.20200  1.0000
  O   O34       1.0  0.75000  0.49400  0.29800  1.0000
  O   O35       1.0  0.25000  0.50600  0.70200  1.0000
  O   O36       1.0  0.75000  0.00600  0.79800  1.0000
  P   P1        1.0  0.06860  0.17500  0.77900  1.0000
  P   P2        1.0  0.93100  0.67500  0.72100  1.0000
  P   P3        1.0  0.43100  0.32500  0.27900  1.0000
  P   P4        1.0  0.56900  0.82500  0.22100  1.0000
  P   P5        1.0  0.93100  0.82500  0.22100  1.0000
  P   P6        1.0  0.06860  0.32500  0.27900  1.0000
  P   P7        1.0  0.56900  0.67500  0.72100  1.0000
  P   P8        1.0  0.43100  0.17500  0.77900  1.0000
  P   P9        1.0  0.25000  0.02120  0.00047  1.0000
  P   P10       1.0  0.75000  0.52100  0.50000  1.0000
  P   P11       1.0  0.25000  0.47900  0.50000  1.0000
  P   P12       1.0  0.75000  0.97900  0.00000  1.0000
