data_image0
_chemical_formula_structural       Ce4Cu24
_chemical_formula_sum              "Ce4 Cu24"
_cell_length_a       5.00314
_cell_length_b       9.96652
_cell_length_c       7.97329
_cell_angle_alpha    90
_cell_angle_beta     91.3835
_cell_angle_gamma    90

_space_group_name_H-M_alt    "P 1"
_space_group_IT_number       1

loop_
  _space_group_symop_operation_xyz
  'x, y, z'

loop_
  _atom_site_type_symbol
  _atom_site_label
  _atom_site_symmetry_multiplicity
  _atom_site_fract_x
  _atom_site_fract_y
  _atom_site_fract_z
  _atom_site_occupancy
  Ce  Ce1       1.0  0.25800  0.43600  0.26000  1.0000
  Ce  Ce2       1.0  0.74200  0.93600  0.24000  1.0000
  Ce  Ce3       1.0  0.74200  0.56400  0.74000  1.0000
  Ce  Ce4       1.0  0.25800  0.06380  0.76000  1.0000
  Cu  Cu1       1.0  0.25000  0.51700  0.90000  1.0000
  Cu  Cu2       1.0  0.75000  0.01650  0.60000  1.0000
  Cu  Cu3       1.0  0.75000  0.48300  0.10000  1.0000
  Cu  Cu4       1.0  0.25000  0.98300  0.40000  1.0000
  Cu  Cu5       1.0  0.23000  0.59600  0.56200  1.0000
  Cu  Cu6       1.0  0.77000  0.09560  0.93800  1.0000
  Cu  Cu7       1.0  0.77000  0.40400  0.43800  1.0000
  Cu  Cu8       1.0  0.23000  0.90400  0.06220  1.0000
  Cu  Cu9       1.0  0.25000  0.75700  0.81800  1.0000
  Cu  Cu10      1.0  0.75000  0.25700  0.68200  1.0000
  Cu  Cu11      1.0  0.75000  0.24300  0.18200  1.0000
  Cu  Cu12      1.0  0.25000  0.74300  0.31800  1.0000
  Cu  Cu13      1.0  0.24600  0.14400  0.14700  1.0000
  Cu  Cu14      1.0  0.75400  0.64400  0.35300  1.0000
  Cu  Cu15      1.0  0.75400  0.85600  0.85300  1.0000
  Cu  Cu16      1.0  0.24600  0.35600  0.64700  1.0000
  Cu  Cu17      1.0  0.49600  0.19300  0.43300  1.0000
  Cu  Cu18      1.0  0.50400  0.69300  0.06660  1.0000
  Cu  Cu19      1.0  0.50400  0.80700  0.56700  1.0000
  Cu  Cu20      1.0  0.49600  0.30700  0.93300  1.0000
  Cu  Cu21      1.0  0.00560  0.18900  0.43700  1.0000
  Cu  Cu22      1.0  0.99400  0.68900  0.06290  1.0000
  Cu  Cu23      1.0  0.99400  0.81100  0.56300  1.0000
  Cu  Cu24      1.0  0.00559  0.31100  0.93700  1.0000
