data_image0
_chemical_formula_structural       Hf8La12Li28O48
_chemical_formula_sum              "Hf8 La12 Li28 O48"
_cell_length_a       11.0451
_cell_length_b       11.0451
_cell_length_c       11.0451
_cell_angle_alpha    108.45
_cell_angle_beta     108.45
_cell_angle_gamma    111.534

_space_group_name_H-M_alt    "P 1"
_space_group_IT_number       1

loop_
  _space_group_symop_operation_xyz
  'x, y, z'

loop_
  _atom_site_type_symbol
  _atom_site_label
  _atom_site_symmetry_multiplicity
  _atom_site_fract_x
  _atom_site_fract_y
  _atom_site_fract_z
  _atom_site_occupancy
  Hf  Hf1       1.0  0.00000  0.00000  0.00000  1.0000
  Hf  Hf2       1.0  0.50000  0.00000  0.50000  1.0000
  Hf  Hf3       1.0  0.50000  0.50000  0.00000  1.0000
  Hf  Hf4       1.0  0.00000  0.50000  0.50000  1.0000
  Hf  Hf5       1.0  0.50000  0.50000  0.50000  1.0000
  Hf  Hf6       1.0  0.50000  0.00000  0.00000  1.0000
  Hf  Hf7       1.0  0.00000  0.00000  0.50000  1.0000
  Hf  Hf8       1.0  0.00000  0.50000  0.00000  1.0000
  La  La1       1.0  0.37500  0.12500  0.25000  1.0000
  La  La2       1.0  0.12500  0.37500  0.75000  1.0000
  La  La3       1.0  0.62500  0.87500  0.75000  1.0000
  La  La4       1.0  0.87500  0.62500  0.25000  1.0000
  La  La5       1.0  0.25000  0.37700  0.12700  1.0000
  La  La6       1.0  0.75000  0.12300  0.37300  1.0000
  La  La7       1.0  0.12300  0.25000  0.37300  1.0000
  La  La8       1.0  0.37700  0.75000  0.12700  1.0000
  La  La9       1.0  0.75000  0.62300  0.87300  1.0000
  La  La10      1.0  0.25000  0.87700  0.62700  1.0000
  La  La11      1.0  0.87700  0.75000  0.62700  1.0000
  La  La12      1.0  0.62300  0.25000  0.87300  1.0000
  Li  Li1       1.0  0.62500  0.37500  0.25000  1.0000
  Li  Li2       1.0  0.87500  0.12500  0.75000  1.0000
  Li  Li3       1.0  0.12500  0.87500  0.25000  1.0000
  Li  Li4       1.0  0.37500  0.62500  0.75000  1.0000
  Li  Li5       1.0  0.55800  0.30800  0.61600  1.0000
  Li  Li6       1.0  0.19200  0.94200  0.88400  1.0000
  Li  Li7       1.0  0.94200  0.55800  0.75000  1.0000
  Li  Li8       1.0  0.30800  0.19200  0.75000  1.0000
  Li  Li9       1.0  0.44200  0.69200  0.38400  1.0000
  Li  Li10      1.0  0.80800  0.05790  0.11600  1.0000
  Li  Li11      1.0  0.05790  0.44200  0.25000  1.0000
  Li  Li12      1.0  0.69200  0.80800  0.25000  1.0000
  Li  Li13      1.0  0.89600  0.88400  0.16800  1.0000
  Li  Li14      1.0  0.21600  0.72800  0.33200  1.0000
  Li  Li15      1.0  0.60400  0.77200  0.98900  1.0000
  Li  Li16      1.0  0.28400  0.61600  0.51100  1.0000
  Li  Li17      1.0  0.61600  0.60400  0.33200  1.0000
  Li  Li18      1.0  0.77200  0.28400  0.16800  1.0000
  Li  Li19      1.0  0.72800  0.89600  0.51100  1.0000
  Li  Li20      1.0  0.88400  0.21600  0.98900  1.0000
  Li  Li21      1.0  0.10400  0.11600  0.83200  1.0000
  Li  Li22      1.0  0.78400  0.27200  0.66800  1.0000
  Li  Li23      1.0  0.39600  0.22800  0.01150  1.0000
  Li  Li24      1.0  0.71600  0.38400  0.48900  1.0000
  Li  Li25      1.0  0.38400  0.39600  0.66800  1.0000
  Li  Li26      1.0  0.22800  0.71600  0.83200  1.0000
  Li  Li27      1.0  0.27200  0.10400  0.48900  1.0000
  Li  Li28      1.0  0.11600  0.78400  0.01150  1.0000
  O   O1        1.0  0.38900  0.59100  0.90700  1.0000
  O   O2        1.0  0.18300  0.48100  0.59300  1.0000
  O   O3        1.0  0.11100  0.01890  0.20200  1.0000
  O   O4        1.0  0.31700  0.90900  0.29800  1.0000
  O   O5        1.0  0.90900  0.11100  0.59300  1.0000
  O   O6        1.0  0.01890  0.31700  0.90700  1.0000
  O   O7        1.0  0.48100  0.38900  0.29800  1.0000
  O   O8        1.0  0.59100  0.18300  0.20200  1.0000
  O   O9        1.0  0.61100  0.40900  0.09260  1.0000
  O   O10       1.0  0.81700  0.51900  0.40700  1.0000
  O   O11       1.0  0.88900  0.98100  0.79800  1.0000
  O   O12       1.0  0.68300  0.09060  0.70200  1.0000
  O   O13       1.0  0.09060  0.88900  0.40700  1.0000
  O   O14       1.0  0.98100  0.68300  0.09260  1.0000
  O   O15       1.0  0.51900  0.61100  0.70200  1.0000
  O   O16       1.0  0.40900  0.81700  0.79800  1.0000
  O   O17       1.0  0.20900  0.11900  0.02120  1.0000
  O   O18       1.0  0.59700  0.18700  0.47900  1.0000
  O   O19       1.0  0.29100  0.31300  0.91000  1.0000
  O   O20       1.0  0.90300  0.38100  0.59000  1.0000
  O   O21       1.0  0.38100  0.29100  0.47900  1.0000
  O   O22       1.0  0.31300  0.90300  0.02120  1.0000
  O   O23       1.0  0.18700  0.20900  0.59000  1.0000
  O   O24       1.0  0.11900  0.59700  0.91000  1.0000
  O   O25       1.0  0.79100  0.88100  0.97900  1.0000
  O   O26       1.0  0.40300  0.81300  0.52100  1.0000
  O   O27       1.0  0.70900  0.68700  0.09000  1.0000
  O   O28       1.0  0.09750  0.61900  0.41000  1.0000
  O   O29       1.0  0.61900  0.70900  0.52100  1.0000
  O   O30       1.0  0.68700  0.09750  0.97900  1.0000
  O   O31       1.0  0.81300  0.79100  0.41000  1.0000
  O   O32       1.0  0.88100  0.40300  0.09000  1.0000
  O   O33       1.0  0.47600  0.59800  0.17900  1.0000
  O   O34       1.0  0.91900  0.29700  0.32100  1.0000
  O   O35       1.0  0.02440  0.20300  0.12200  1.0000
  O   O36       1.0  0.58100  0.90200  0.37800  1.0000
  O   O37       1.0  0.90200  0.02440  0.32100  1.0000
  O   O38       1.0  0.20300  0.58100  0.17900  1.0000
  O   O39       1.0  0.29700  0.47600  0.37800  1.0000
  O   O40       1.0  0.59800  0.91900  0.12200  1.0000
  O   O41       1.0  0.52400  0.40200  0.82100  1.0000
  O   O42       1.0  0.08110  0.70300  0.67900  1.0000
  O   O43       1.0  0.97600  0.79700  0.87800  1.0000
  O   O44       1.0  0.41900  0.09790  0.62200  1.0000
  O   O45       1.0  0.09790  0.97600  0.67900  1.0000
  O   O46       1.0  0.79700  0.41900  0.82100  1.0000
  O   O47       1.0  0.70300  0.52400  0.62200  1.0000
  O   O48       1.0  0.40200  0.08110  0.87800  1.0000
