data_image0
_chemical_formula_structural       BiMn7O12
_chemical_formula_sum              "Bi1 Mn7 O12"
_cell_length_a       6.45002
_cell_length_b       6.43045
_cell_length_c       6.45002
_cell_angle_alpha    109.354
_cell_angle_beta     109.87
_cell_angle_gamma    109.312

_space_group_name_H-M_alt    "P 1"
_space_group_IT_number       1

loop_
  _space_group_symop_operation_xyz
  'x, y, z'

loop_
  _atom_site_type_symbol
  _atom_site_label
  _atom_site_symmetry_multiplicity
  _atom_site_fract_x
  _atom_site_fract_y
  _atom_site_fract_z
  _atom_site_occupancy
  Bi  Bi1       1.0  0.00000  0.00000  0.00000  1.0000
  Mn  Mn1       1.0  0.50000  0.00000  0.50000  1.0000
  Mn  Mn2       1.0  0.50000  0.50000  0.00000  1.0000
  Mn  Mn3       1.0  0.00000  0.50000  0.50000  1.0000
  Mn  Mn4       1.0  0.00000  0.00000  0.50000  1.0000
  Mn  Mn5       1.0  0.50000  1.00000  0.00000  1.0000
  Mn  Mn6       1.0  0.50000  0.50000  0.50000  1.0000
  Mn  Mn7       1.0  0.00000  0.50000  0.00000  1.0000
  O   O1        1.0  0.30900  0.17800  0.48500  1.0000
  O   O2        1.0  0.30700  0.82200  0.13100  1.0000
  O   O3        1.0  0.69100  0.82200  0.51500  1.0000
  O   O4        1.0  0.69300  0.17800  0.86900  1.0000
  O   O5        1.0  0.48600  0.30800  0.17700  1.0000
  O   O6        1.0  0.86900  0.69200  0.17800  1.0000
  O   O7        1.0  0.51400  0.69200  0.82300  1.0000
  O   O8        1.0  0.13100  0.30800  0.82200  1.0000
  O   O9        1.0  0.82300  0.13100  0.30800  1.0000
  O   O10       1.0  0.17700  0.86900  0.69200  1.0000
  O   O11       1.0  0.17600  0.48400  0.30800  1.0000
  O   O12       1.0  0.82400  0.51600  0.69200  1.0000
