data_image0
_chemical_formula_structural       H32Li6O24V2
_chemical_formula_sum              "H32 Li6 O24 V2"
_cell_length_a       6.97679
_cell_length_b       6.2083
_cell_length_c       12.2037
_cell_angle_alpha    90
_cell_angle_beta     111.689
_cell_angle_gamma    90

_space_group_name_H-M_alt    "P 1"
_space_group_IT_number       1

loop_
  _space_group_symop_operation_xyz
  'x, y, z'

loop_
  _atom_site_type_symbol
  _atom_site_label
  _atom_site_symmetry_multiplicity
  _atom_site_fract_x
  _atom_site_fract_y
  _atom_site_fract_z
  _atom_site_occupancy
  H   H1        1.0  0.26400  0.65300  0.30700  1.0000
  H   H2        1.0  0.26400  0.34700  0.80700  1.0000
  H   H3        1.0  0.51600  0.18700  0.60400  1.0000
  H   H4        1.0  0.51600  0.81300  0.10400  1.0000
  H   H5        1.0  0.39000  0.25900  0.47100  1.0000
  H   H6        1.0  0.39000  0.74100  0.97100  1.0000
  H   H7        1.0  0.00827  0.18200  0.58800  1.0000
  H   H8        1.0  0.00827  0.81800  0.08820  1.0000
  H   H9        1.0  0.98500  0.27900  0.46400  1.0000
  H   H10       1.0  0.98500  0.72100  0.96400  1.0000
  H   H11       1.0  0.18400  0.23800  0.97800  1.0000
  H   H12       1.0  0.18400  0.76200  0.47800  1.0000
  H   H13       1.0  0.12800  0.17500  0.09240  1.0000
  H   H14       1.0  0.12800  0.82500  0.59200  1.0000
  H   H15       1.0  0.91300  0.65800  0.29300  1.0000
  H   H16       1.0  0.91300  0.34200  0.79300  1.0000
  H   H17       1.0  0.34400  0.41200  0.30400  1.0000
  H   H18       1.0  0.34400  0.58800  0.80400  1.0000
  H   H19       1.0  0.42800  0.14300  0.12200  1.0000
  H   H20       1.0  0.42800  0.85700  0.62200  1.0000
  H   H21       1.0  0.51600  0.05140  0.37200  1.0000
  H   H22       1.0  0.51600  0.94900  0.87200  1.0000
  H   H23       1.0  0.65900  0.10500  0.22500  1.0000
  H   H24       1.0  0.65900  0.89500  0.72500  1.0000
  H   H25       1.0  0.62100  0.52700  0.04330  1.0000
  H   H26       1.0  0.62100  0.47300  0.54300  1.0000
  H   H27       1.0  0.82000  0.42600  0.28000  1.0000
  H   H28       1.0  0.82000  0.57400  0.78000  1.0000
  H   H29       1.0  0.75500  0.04840  0.38500  1.0000
  H   H30       1.0  0.75500  0.95200  0.88500  1.0000
  H   H31       1.0  0.84700  0.52300  0.04090  1.0000
  H   H32       1.0  0.84700  0.47700  0.54100  1.0000
  Li  Li1       1.0  0.72500  0.14000  0.05870  1.0000
  Li  Li2       1.0  0.72500  0.86000  0.55900  1.0000
  Li  Li3       1.0  0.63000  0.66400  0.36000  1.0000
  Li  Li4       1.0  0.63000  0.33600  0.86000  1.0000
  Li  Li5       1.0  0.28000  0.54600  0.11700  1.0000
  Li  Li6       1.0  0.28000  0.45400  0.61700  1.0000
  O   O1        1.0  0.36100  0.56500  0.28100  1.0000
  O   O2        1.0  0.36100  0.43500  0.78100  1.0000
  O   O3        1.0  0.77900  0.58000  0.26800  1.0000
  O   O4        1.0  0.77900  0.42000  0.76800  1.0000
  O   O5        1.0  0.71800  0.43100  0.02160  1.0000
  O   O6        1.0  0.71800  0.56900  0.52200  1.0000
  O   O7        1.0  0.64800  0.03580  0.90300  1.0000
  O   O8        1.0  0.64800  0.96400  0.40300  1.0000
  O   O9        1.0  0.56400  0.05850  0.14700  1.0000
  O   O10       1.0  0.56400  0.94100  0.64700  1.0000
  O   O11       1.0  0.99200  0.03810  0.13900  1.0000
  O   O12       1.0  0.99200  0.96200  0.63900  1.0000
  O   O13       1.0  0.90200  0.18100  0.33400  1.0000
  O   O14       1.0  0.90200  0.81900  0.83400  1.0000
  O   O15       1.0  0.31600  0.18300  0.33900  1.0000
  O   O16       1.0  0.31600  0.81700  0.83900  1.0000
  O   O17       1.0  0.12200  0.20700  0.84700  1.0000
  O   O18       1.0  0.12200  0.79300  0.34700  1.0000
  O   O19       1.0  0.22900  0.25800  0.06680  1.0000
  O   O20       1.0  0.22900  0.74200  0.56700  1.0000
  O   O21       1.0  0.02330  0.32100  0.54800  1.0000
  O   O22       1.0  0.02330  0.67900  0.04840  1.0000
  O   O23       1.0  0.45300  0.31600  0.55400  1.0000
  O   O24       1.0  0.45300  0.68400  0.05380  1.0000
  V   V1        1.0  0.08260  0.05030  0.29000  1.0000
  V   V2        1.0  0.08260  0.95000  0.79000  1.0000
