data_image0
_chemical_formula_structural       As12Cu4O4Sm8
_chemical_formula_sum              "As12 Cu4 O4 Sm8"
_cell_length_a       34.6005
_cell_length_b       3.98406
_cell_length_c       3.9885
_cell_angle_alpha    90
_cell_angle_beta     89.9914
_cell_angle_gamma    90

_space_group_name_H-M_alt    "P 1"
_space_group_IT_number       1

loop_
  _space_group_symop_operation_xyz
  'x, y, z'

loop_
  _atom_site_type_symbol
  _atom_site_label
  _atom_site_symmetry_multiplicity
  _atom_site_fract_x
  _atom_site_fract_y
  _atom_site_fract_z
  _atom_site_occupancy
  As  As1       1.0  0.39300  0.25000  0.32800  1.0000
  As  As2       1.0  0.10700  0.75000  0.82800  1.0000
  As  As3       1.0  0.89300  0.25000  0.17200  1.0000
  As  As4       1.0  0.60700  0.75000  0.67200  1.0000
  As  As5       1.0  0.39400  0.75000  0.75600  1.0000
  As  As6       1.0  0.10600  0.25000  0.25600  1.0000
  As  As7       1.0  0.89400  0.75000  0.74400  1.0000
  As  As8       1.0  0.60600  0.25000  0.24400  1.0000
  As  As9       1.0  0.20600  0.25000  0.80800  1.0000
  As  As10      1.0  0.29400  0.75000  0.30800  1.0000
  As  As11      1.0  0.70600  0.25000  0.69200  1.0000
  As  As12      1.0  0.79400  0.75000  0.19200  1.0000
  Cu  Cu1       1.0  0.25000  0.25000  0.30800  1.0000
  Cu  Cu2       1.0  0.25000  0.75000  0.80800  1.0000
  Cu  Cu3       1.0  0.75000  0.25000  0.19200  1.0000
  Cu  Cu4       1.0  0.75000  0.75000  0.69200  1.0000
  O   O1        1.0  0.50000  0.75000  0.75100  1.0000
  O   O2        1.0  0.00000  0.25000  0.25100  1.0000
  O   O3        1.0  0.00013  0.75000  0.74900  1.0000
  O   O4        1.0  0.50000  0.25000  0.24900  1.0000
  Sm  Sm1       1.0  0.46700  0.75000  0.25100  1.0000
  Sm  Sm2       1.0  0.03330  0.25000  0.75100  1.0000
  Sm  Sm3       1.0  0.96700  0.75000  0.24900  1.0000
  Sm  Sm4       1.0  0.53300  0.25000  0.74900  1.0000
  Sm  Sm5       1.0  0.32400  0.25000  0.80800  1.0000
  Sm  Sm6       1.0  0.17600  0.75000  0.30800  1.0000
  Sm  Sm7       1.0  0.82400  0.25000  0.69200  1.0000
  Sm  Sm8       1.0  0.67600  0.75000  0.19200  1.0000
