data_image0
_chemical_formula_structural       Ho3Sn7
_chemical_formula_sum              "Ho3 Sn7"
_cell_length_a       10.2588
_cell_length_b       10.2588
_cell_length_c       21.7808
_cell_angle_alpha    90
_cell_angle_beta     90
_cell_angle_gamma    25.5087

_space_group_name_H-M_alt    "P 1"
_space_group_IT_number       1

loop_
  _space_group_symop_operation_xyz
  'x, y, z'

loop_
  _atom_site_type_symbol
  _atom_site_label
  _atom_site_symmetry_multiplicity
  _atom_site_fract_x
  _atom_site_fract_y
  _atom_site_fract_z
  _atom_site_occupancy
  Ho  Ho1       1.0  0.00000  0.00000  0.50000  1.0000
  Ho  Ho2       1.0  0.31800  0.31800  0.00000  1.0000
  Ho  Ho3       1.0  0.68200  0.68200  0.00000  1.0000
  Sn  Sn1       1.0  0.18400  0.18400  0.50000  1.0000
  Sn  Sn2       1.0  0.81600  0.81600  0.50000  1.0000
  Sn  Sn3       1.0  0.40200  0.40200  0.50000  1.0000
  Sn  Sn4       1.0  0.59800  0.59800  0.50000  1.0000
  Sn  Sn5       1.0  0.09090  0.09090  0.00000  1.0000
  Sn  Sn6       1.0  0.90900  0.90900  0.00000  1.0000
  Sn  Sn7       1.0  0.50000  0.50000  0.00000  1.0000
