data_image0
_chemical_formula_structural       Al8Si38
_chemical_formula_sum              "Al8 Si38"
_cell_length_a       10.4089
_cell_length_b       10.263
_cell_length_c       10.4946
_cell_angle_alpha    92.3795
_cell_angle_beta     90.8111
_cell_angle_gamma    87.9993

_space_group_name_H-M_alt    "P 1"
_space_group_IT_number       1

loop_
  _space_group_symop_operation_xyz
  'x, y, z'

loop_
  _atom_site_type_symbol
  _atom_site_label
  _atom_site_symmetry_multiplicity
  _atom_site_fract_x
  _atom_site_fract_y
  _atom_site_fract_z
  _atom_site_occupancy
  Al  Al1       1.0  0.86700  0.70800  0.98300  1.0000
  Al  Al2       1.0  0.61800  0.52000  0.81500  1.0000
  Al  Al3       1.0  0.00862  0.10600  0.31300  1.0000
  Al  Al4       1.0  0.68900  0.00028  0.11700  1.0000
  Al  Al5       1.0  0.49300  0.00401  0.75500  1.0000
  Al  Al6       1.0  0.25200  0.49900  0.00236  1.0000
  Al  Al7       1.0  0.51700  0.18400  0.38500  1.0000
  Al  Al8       1.0  0.99600  0.74200  0.49700  1.0000
  Si  Si1       1.0  0.48300  0.80800  0.60600  1.0000
  Si  Si2       1.0  0.20100  0.37300  0.50400  1.0000
  Si  Si3       1.0  0.67500  0.70100  0.67800  1.0000
  Si  Si4       1.0  0.32300  0.31600  0.69200  1.0000
  Si  Si5       1.0  0.83000  0.18900  0.17400  1.0000
  Si  Si6       1.0  0.17900  0.80000  0.17200  1.0000
  Si  Si7       1.0  0.19200  0.18600  0.82200  1.0000
  Si  Si8       1.0  0.80800  0.84800  0.79600  1.0000
  Si  Si9       1.0  0.31000  0.68300  0.67500  1.0000
  Si  Si10      1.0  0.69300  0.32300  0.68200  1.0000
  Si  Si11      1.0  0.70000  0.31200  0.31600  1.0000
  Si  Si12      1.0  0.31000  0.67000  0.31200  1.0000
  Si  Si13      1.0  0.74700  0.50400  0.01810  1.0000
  Si  Si14      1.0  0.49000  0.98100  0.24700  1.0000
  Si  Si15      1.0  0.00938  0.25200  0.51000  1.0000
  Si  Si16      1.0  0.17600  0.82100  0.80900  1.0000
  Si  Si17      1.0  0.82700  0.20200  0.81700  1.0000
  Si  Si18      1.0  0.80500  0.80100  0.20100  1.0000
  Si  Si19      1.0  0.18800  0.18000  0.18000  1.0000
  Si  Si20      1.0  0.31800  0.30800  0.31700  1.0000
  Si  Si21      1.0  0.67500  0.67600  0.32900  1.0000
  Si  Si22      1.0  0.80000  0.61200  0.50700  1.0000
  Si  Si23      1.0  0.51400  0.19900  0.62300  1.0000
  Si  Si24      1.0  0.48500  0.80000  0.38000  1.0000
  Si  Si25      1.0  0.19600  0.60300  0.49200  1.0000
  Si  Si26      1.0  0.81400  0.38000  0.50500  1.0000
  Si  Si27      1.0  0.61900  0.49100  0.20300  1.0000
  Si  Si28      1.0  0.38000  0.51200  0.80500  1.0000
  Si  Si29      1.0  0.39100  0.48200  0.19800  1.0000
  Si  Si30      1.0  0.99800  0.89900  0.68600  1.0000
  Si  Si31      1.0  0.30100  0.98400  0.11700  1.0000
  Si  Si32      1.0  0.99900  0.86400  0.29900  1.0000
  Si  Si33      1.0  0.00913  0.12900  0.69700  1.0000
  Si  Si34      1.0  0.11700  0.30600  0.00749  1.0000
  Si  Si35      1.0  0.88900  0.31800  0.00637  1.0000
  Si  Si36      1.0  0.30200  0.99300  0.89100  1.0000
  Si  Si37      1.0  0.69800  0.03330  0.88100  1.0000
  Si  Si38      1.0  0.10700  0.69700  0.97800  1.0000
