data_image0
_chemical_formula_structural       Ca20Ge12
_chemical_formula_sum              "Ca20 Ge12"
_cell_length_a       7.68779
_cell_length_b       7.68779
_cell_length_c       14.7625
_cell_angle_alpha    90
_cell_angle_beta     90
_cell_angle_gamma    90

_space_group_name_H-M_alt    "P 1"
_space_group_IT_number       1

loop_
  _space_group_symop_operation_xyz
  'x, y, z'

loop_
  _atom_site_type_symbol
  _atom_site_label
  _atom_site_symmetry_multiplicity
  _atom_site_fract_x
  _atom_site_fract_y
  _atom_site_fract_z
  _atom_site_occupancy
  Ca  Ca1       1.0  0.00000  0.50000  0.25000  1.0000
  Ca  Ca2       1.0  0.50000  0.00000  0.25000  1.0000
  Ca  Ca3       1.0  0.50000  0.00000  0.75000  1.0000
  Ca  Ca4       1.0  0.00000  0.50000  0.75000  1.0000
  Ca  Ca5       1.0  0.17700  0.17700  0.10800  1.0000
  Ca  Ca6       1.0  0.82300  0.82300  0.10800  1.0000
  Ca  Ca7       1.0  0.67700  0.32300  0.39200  1.0000
  Ca  Ca8       1.0  0.32300  0.67700  0.39200  1.0000
  Ca  Ca9       1.0  0.82300  0.82300  0.39200  1.0000
  Ca  Ca10      1.0  0.17700  0.17700  0.39200  1.0000
  Ca  Ca11      1.0  0.67700  0.32300  0.10800  1.0000
  Ca  Ca12      1.0  0.32300  0.67700  0.10800  1.0000
  Ca  Ca13      1.0  0.32300  0.32300  0.89200  1.0000
  Ca  Ca14      1.0  0.67700  0.67700  0.89200  1.0000
  Ca  Ca15      1.0  0.82300  0.17700  0.60800  1.0000
  Ca  Ca16      1.0  0.17700  0.82300  0.60800  1.0000
  Ca  Ca17      1.0  0.67700  0.67700  0.60800  1.0000
  Ca  Ca18      1.0  0.32300  0.32300  0.60800  1.0000
  Ca  Ca19      1.0  0.82300  0.17700  0.89200  1.0000
  Ca  Ca20      1.0  0.17700  0.82300  0.89200  1.0000
  Ge  Ge1       1.0  0.38100  0.38100  0.25000  1.0000
  Ge  Ge2       1.0  0.61900  0.61900  0.25000  1.0000
  Ge  Ge3       1.0  0.88100  0.11900  0.25000  1.0000
  Ge  Ge4       1.0  0.11900  0.88100  0.25000  1.0000
  Ge  Ge5       1.0  0.11900  0.11900  0.75000  1.0000
  Ge  Ge6       1.0  0.88100  0.88100  0.75000  1.0000
  Ge  Ge7       1.0  0.61900  0.38100  0.75000  1.0000
  Ge  Ge8       1.0  0.38100  0.61900  0.75000  1.0000
  Ge  Ge9       1.0  0.00000  0.50000  0.00000  1.0000
  Ge  Ge10      1.0  0.50000  0.00000  0.50000  1.0000
  Ge  Ge11      1.0  0.50000  0.00000  0.00001  1.0000
  Ge  Ge12      1.0  0.00000  0.50000  0.50000  1.0000
