data_image0
_chemical_formula_structural       Ca2Ir6Si14
_chemical_formula_sum              "Ca2 Ir6 Si14"
_cell_length_a       8.03347
_cell_length_b       8.03349
_cell_length_c       8.03348
_cell_angle_alpha    56.7631
_cell_angle_beta     56.7632
_cell_angle_gamma    56.7631

_space_group_name_H-M_alt    "P 1"
_space_group_IT_number       1

loop_
  _space_group_symop_operation_xyz
  'x, y, z'

loop_
  _atom_site_type_symbol
  _atom_site_label
  _atom_site_symmetry_multiplicity
  _atom_site_fract_x
  _atom_site_fract_y
  _atom_site_fract_z
  _atom_site_occupancy
  Ca  Ca1       1.0  0.00000  0.00000  0.00000  1.0000
  Ca  Ca2       1.0  0.50000  0.50000  0.50000  1.0000
  Ir  Ir1       1.0  0.43000  0.75000  0.07010  1.0000
  Ir  Ir2       1.0  0.07010  0.43000  0.75000  1.0000
  Ir  Ir3       1.0  0.75000  0.07010  0.43000  1.0000
  Ir  Ir4       1.0  0.57000  0.25000  0.93000  1.0000
  Ir  Ir5       1.0  0.93000  0.57000  0.25000  1.0000
  Ir  Ir6       1.0  0.25000  0.93000  0.57000  1.0000
  Si  Si1       1.0  0.43400  0.65000  0.82700  1.0000
  Si  Si2       1.0  0.82700  0.43400  0.65000  1.0000
  Si  Si3       1.0  0.65000  0.82700  0.43400  1.0000
  Si  Si4       1.0  0.85000  0.06610  0.67300  1.0000
  Si  Si5       1.0  0.06610  0.67300  0.85000  1.0000
  Si  Si6       1.0  0.67300  0.85000  0.06610  1.0000
  Si  Si7       1.0  0.56600  0.35000  0.17300  1.0000
  Si  Si8       1.0  0.17300  0.56600  0.35000  1.0000
  Si  Si9       1.0  0.35000  0.17300  0.56600  1.0000
  Si  Si10      1.0  0.15000  0.93400  0.32700  1.0000
  Si  Si11      1.0  0.93400  0.32700  0.15000  1.0000
  Si  Si12      1.0  0.32700  0.15000  0.93400  1.0000
  Si  Si13      1.0  0.75000  0.75000  0.75000  1.0000
  Si  Si14      1.0  0.25000  0.25000  0.25000  1.0000
