data_image0
_chemical_formula_structural       Co5Ge7
_chemical_formula_sum              "Co5 Ge7"
_cell_length_a       6.23526
_cell_length_b       6.23526
_cell_length_c       6.23526
_cell_angle_alpha    103.024
_cell_angle_beta     103.024
_cell_angle_gamma    123.318

_space_group_name_H-M_alt    "P 1"
_space_group_IT_number       1

loop_
  _space_group_symop_operation_xyz
  'x, y, z'

loop_
  _atom_site_type_symbol
  _atom_site_label
  _atom_site_symmetry_multiplicity
  _atom_site_fract_x
  _atom_site_fract_y
  _atom_site_fract_z
  _atom_site_occupancy
  Co  Co1       1.0  0.28200  0.74900  0.00000  1.0000
  Co  Co2       1.0  0.74900  0.28200  0.00000  1.0000
  Co  Co3       1.0  0.28200  0.28200  0.53300  1.0000
  Co  Co4       1.0  0.74900  0.74900  0.46700  1.0000
  Co  Co5       1.0  0.46000  0.46000  0.00000  1.0000
  Ge  Ge1       1.0  0.46300  0.22200  0.24200  1.0000
  Ge  Ge2       1.0  0.22200  0.98000  0.75800  1.0000
  Ge  Ge3       1.0  0.22200  0.46300  0.24200  1.0000
  Ge  Ge4       1.0  0.83500  0.83500  0.00000  1.0000
  Ge  Ge5       1.0  0.97900  0.47900  0.50000  1.0000
  Ge  Ge6       1.0  0.47900  0.97900  0.50000  1.0000
  Ge  Ge7       1.0  0.98000  0.22200  0.75800  1.0000
