data_image0
_chemical_formula_structural       Cl4F12Sn8
_chemical_formula_sum              "Cl4 F12 Sn8"
_cell_length_a       7.33454
_cell_length_b       7.33261
_cell_length_c       7.32935
_cell_angle_alpha    90
_cell_angle_beta     90
_cell_angle_gamma    90

_space_group_name_H-M_alt    "P 1"
_space_group_IT_number       1

loop_
  _space_group_symop_operation_xyz
  'x, y, z'

loop_
  _atom_site_type_symbol
  _atom_site_label
  _atom_site_symmetry_multiplicity
  _atom_site_fract_x
  _atom_site_fract_y
  _atom_site_fract_z
  _atom_site_occupancy
  Cl  Cl1       1.0  0.25100  0.25100  0.25200  1.0000
  Cl  Cl2       1.0  0.24900  0.74900  0.75200  1.0000
  Cl  Cl3       1.0  0.75100  0.24900  0.74800  1.0000
  Cl  Cl4       1.0  0.74900  0.75100  0.24800  1.0000
  F   F1        1.0  0.86300  0.11900  0.12500  1.0000
  F   F2        1.0  0.63700  0.88100  0.62500  1.0000
  F   F3        1.0  0.36300  0.38100  0.87500  1.0000
  F   F4        1.0  0.13700  0.61900  0.37500  1.0000
  F   F5        1.0  0.12400  0.86300  0.11800  1.0000
  F   F6        1.0  0.37600  0.13700  0.61800  1.0000
  F   F7        1.0  0.62400  0.63700  0.88200  1.0000
  F   F8        1.0  0.87600  0.36300  0.38200  1.0000
  F   F9        1.0  0.11900  0.12500  0.86300  1.0000
  F   F10       1.0  0.38100  0.87500  0.36300  1.0000
  F   F11       1.0  0.61900  0.37500  0.13700  1.0000
  F   F12       1.0  0.88100  0.62500  0.63700  1.0000
  Sn  Sn1       1.0  0.59100  0.59000  0.59200  1.0000
  Sn  Sn2       1.0  0.90900  0.41000  0.09170  1.0000
  Sn  Sn3       1.0  0.09140  0.91000  0.40800  1.0000
  Sn  Sn4       1.0  0.40900  0.09050  0.90800  1.0000
  Sn  Sn5       1.0  0.91000  0.91200  0.90900  1.0000
  Sn  Sn6       1.0  0.59000  0.08810  0.40900  1.0000
  Sn  Sn7       1.0  0.41000  0.58800  0.09050  1.0000
  Sn  Sn8       1.0  0.09040  0.41200  0.59100  1.0000
