data_image0
_chemical_formula_structural       B12Li12Nd8O36
_chemical_formula_sum              "B12 Li12 Nd8 O36"
_cell_length_a       8.70592
_cell_length_b       14.0966
_cell_length_c       5.56096
_cell_angle_alpha    90
_cell_angle_beta     103.273
_cell_angle_gamma    90

_space_group_name_H-M_alt    "P 1"
_space_group_IT_number       1

loop_
  _space_group_symop_operation_xyz
  'x, y, z'

loop_
  _atom_site_type_symbol
  _atom_site_label
  _atom_site_symmetry_multiplicity
  _atom_site_fract_x
  _atom_site_fract_y
  _atom_site_fract_z
  _atom_site_occupancy
  B   B1        1.0  0.52100  0.17600  0.41100  1.0000
  B   B2        1.0  0.97900  0.67600  0.08890  1.0000
  B   B3        1.0  0.47900  0.82400  0.58900  1.0000
  B   B4        1.0  0.02090  0.32400  0.91100  1.0000
  B   B5        1.0  0.48900  0.48700  0.75000  1.0000
  B   B6        1.0  0.01140  0.98700  0.75000  1.0000
  B   B7        1.0  0.51100  0.51300  0.25000  1.0000
  B   B8        1.0  0.98900  0.01280  0.25000  1.0000
  B   B9        1.0  0.52600  0.16300  0.91100  1.0000
  B   B10       1.0  0.97400  0.66300  0.58900  1.0000
  B   B11       1.0  0.47400  0.83700  0.08870  1.0000
  B   B12       1.0  0.02620  0.33700  0.41100  1.0000
  Li  Li1       1.0  0.48000  0.33300  0.06890  1.0000
  Li  Li2       1.0  0.01970  0.83300  0.43100  1.0000
  Li  Li3       1.0  0.52000  0.66700  0.93100  1.0000
  Li  Li4       1.0  0.98000  0.16700  0.56900  1.0000
  Li  Li5       1.0  0.29300  0.38600  0.34200  1.0000
  Li  Li6       1.0  0.20700  0.88600  0.15800  1.0000
  Li  Li7       1.0  0.70700  0.61400  0.65800  1.0000
  Li  Li8       1.0  0.79300  0.11400  0.84200  1.0000
  Li  Li9       1.0  0.29700  0.28300  0.69500  1.0000
  Li  Li10      1.0  0.20300  0.78300  0.80500  1.0000
  Li  Li11      1.0  0.70300  0.71700  0.30500  1.0000
  Li  Li12      1.0  0.79700  0.21700  0.19500  1.0000
  Nd  Nd1       1.0  0.19100  0.16300  0.13700  1.0000
  Nd  Nd2       1.0  0.30900  0.66300  0.36300  1.0000
  Nd  Nd3       1.0  0.80900  0.83700  0.86300  1.0000
  Nd  Nd4       1.0  0.69100  0.33700  0.63700  1.0000
  Nd  Nd5       1.0  0.33900  0.00164  0.68800  1.0000
  Nd  Nd6       1.0  0.16100  0.50200  0.81200  1.0000
  Nd  Nd7       1.0  0.66100  0.99800  0.31200  1.0000
  Nd  Nd8       1.0  0.83900  0.49800  0.18800  1.0000
  O   O1        1.0  0.43500  0.09330  0.38400  1.0000
  O   O2        1.0  0.06540  0.59300  0.11600  1.0000
  O   O3        1.0  0.56500  0.90700  0.61600  1.0000
  O   O4        1.0  0.93500  0.40700  0.88400  1.0000
  O   O5        1.0  0.15000  0.00626  0.29600  1.0000
  O   O6        1.0  0.35000  0.50600  0.20400  1.0000
  O   O7        1.0  0.85000  0.99400  0.70400  1.0000
  O   O8        1.0  0.65000  0.49400  0.79600  1.0000
  O   O9        1.0  0.41600  0.40000  0.72600  1.0000
  O   O10       1.0  0.08350  0.90000  0.77400  1.0000
  O   O11       1.0  0.58400  0.60000  0.27400  1.0000
  O   O12       1.0  0.91600  0.10000  0.22600  1.0000
  O   O13       1.0  0.10000  0.06860  0.77400  1.0000
  O   O14       1.0  0.40000  0.56900  0.72600  1.0000
  O   O15       1.0  0.90000  0.93100  0.22600  1.0000
  O   O16       1.0  0.60000  0.43100  0.27400  1.0000
  O   O17       1.0  0.68400  0.17000  0.47300  1.0000
  O   O18       1.0  0.81600  0.67000  0.02730  1.0000
  O   O19       1.0  0.31600  0.83000  0.52700  1.0000
  O   O20       1.0  0.18400  0.33000  0.97300  1.0000
  O   O21       1.0  0.44200  0.26200  0.36800  1.0000
  O   O22       1.0  0.05790  0.76200  0.13200  1.0000
  O   O23       1.0  0.55800  0.73800  0.63200  1.0000
  O   O24       1.0  0.94200  0.23800  0.86800  1.0000
  O   O25       1.0  0.61600  0.24300  0.94500  1.0000
  O   O26       1.0  0.88400  0.74300  0.55500  1.0000
  O   O27       1.0  0.38400  0.75700  0.05460  1.0000
  O   O28       1.0  0.11600  0.25700  0.44500  1.0000
  O   O29       1.0  0.59400  0.07420  0.92200  1.0000
  O   O30       1.0  0.90600  0.57400  0.57800  1.0000
  O   O31       1.0  0.40600  0.92600  0.07780  1.0000
  O   O32       1.0  0.09430  0.42600  0.42200  1.0000
  O   O33       1.0  0.36400  0.16700  0.85800  1.0000
  O   O34       1.0  0.13600  0.66700  0.64200  1.0000
  O   O35       1.0  0.63600  0.83300  0.14200  1.0000
  O   O36       1.0  0.86400  0.33300  0.35800  1.0000
