data_image0
_chemical_formula_structural       B12Li24O36Yb4
_chemical_formula_sum              "B12 Li24 O36 Yb4"
_cell_length_a       6.91988
_cell_length_b       6.21133
_cell_length_c       16.1161
_cell_angle_alpha    90
_cell_angle_beta     90
_cell_angle_gamma    107.411

_space_group_name_H-M_alt    "P 1"
_space_group_IT_number       1

loop_
  _space_group_symop_operation_xyz
  'x, y, z'

loop_
  _atom_site_type_symbol
  _atom_site_label
  _atom_site_symmetry_multiplicity
  _atom_site_fract_x
  _atom_site_fract_y
  _atom_site_fract_z
  _atom_site_occupancy
  B   B1        1.0  0.12900  0.17600  0.36700  1.0000
  B   B2        1.0  0.87100  0.32400  0.86700  1.0000
  B   B3        1.0  0.87100  0.82400  0.63300  1.0000
  B   B4        1.0  0.12900  0.67600  0.13300  1.0000
  B   B5        1.0  0.25100  0.49400  0.61500  1.0000
  B   B6        1.0  0.74900  0.00573  0.11500  1.0000
  B   B7        1.0  0.74900  0.50600  0.38500  1.0000
  B   B8        1.0  0.25100  0.99400  0.88500  1.0000
  B   B9        1.0  0.50300  0.37300  0.11900  1.0000
  B   B10       1.0  0.49700  0.12700  0.61900  1.0000
  B   B11       1.0  0.49700  0.62700  0.88100  1.0000
  B   B12       1.0  0.50300  0.87300  0.38100  1.0000
  Li  Li1       1.0  0.76600  0.87400  0.28800  1.0000
  Li  Li2       1.0  0.23400  0.62600  0.78800  1.0000
  Li  Li3       1.0  0.23400  0.12600  0.71200  1.0000
  Li  Li4       1.0  0.76600  0.37400  0.21200  1.0000
  Li  Li5       1.0  0.31600  0.48900  0.45600  1.0000
  Li  Li6       1.0  0.68400  0.01060  0.95600  1.0000
  Li  Li7       1.0  0.68400  0.51100  0.54400  1.0000
  Li  Li8       1.0  0.31600  0.98900  0.04390  1.0000
  Li  Li9       1.0  0.09050  0.11700  0.56500  1.0000
  Li  Li10      1.0  0.91000  0.38300  0.06500  1.0000
  Li  Li11      1.0  0.91000  0.88300  0.43500  1.0000
  Li  Li12      1.0  0.09050  0.61700  0.93500  1.0000
  Li  Li13      1.0  0.47900  0.48700  0.29600  1.0000
  Li  Li14      1.0  0.52100  0.01330  0.79600  1.0000
  Li  Li15      1.0  0.52100  0.51300  0.70400  1.0000
  Li  Li16      1.0  0.47900  0.98700  0.20400  1.0000
  Li  Li17      1.0  0.41900  0.13900  0.47300  1.0000
  Li  Li18      1.0  0.58100  0.36100  0.97300  1.0000
  Li  Li19      1.0  0.58100  0.86100  0.52700  1.0000
  Li  Li20      1.0  0.41900  0.63900  0.02720  1.0000
  Li  Li21      1.0  0.12400  0.73900  0.51800  1.0000
  Li  Li22      1.0  0.87600  0.76100  0.01780  1.0000
  Li  Li23      1.0  0.87600  0.26100  0.48200  1.0000
  Li  Li24      1.0  0.12400  0.23900  0.98200  1.0000
  O   O1        1.0  0.07400  0.44300  0.57100  1.0000
  O   O2        1.0  0.92600  0.05740  0.07060  1.0000
  O   O3        1.0  0.92600  0.55700  0.42900  1.0000
  O   O4        1.0  0.07400  0.94300  0.92900  1.0000
  O   O5        1.0  0.23100  0.44300  0.69800  1.0000
  O   O6        1.0  0.76900  0.05670  0.19800  1.0000
  O   O7        1.0  0.76900  0.55700  0.30200  1.0000
  O   O8        1.0  0.23100  0.94300  0.80200  1.0000
  O   O9        1.0  0.43600  0.57000  0.57700  1.0000
  O   O10       1.0  0.56400  0.93000  0.07750  1.0000
  O   O11       1.0  0.56400  0.43000  0.42300  1.0000
  O   O12       1.0  0.43600  0.07030  0.92300  1.0000
  O   O13       1.0  0.13600  0.16900  0.45200  1.0000
  O   O14       1.0  0.86400  0.33100  0.95200  1.0000
  O   O15       1.0  0.86400  0.83100  0.54800  1.0000
  O   O16       1.0  0.13600  0.66900  0.04850  1.0000
  O   O17       1.0  0.03650  0.48600  0.17700  1.0000
  O   O18       1.0  0.96300  0.01360  0.67700  1.0000
  O   O19       1.0  0.96300  0.51400  0.82300  1.0000
  O   O20       1.0  0.03650  0.98600  0.32300  1.0000
  O   O21       1.0  0.21100  0.37100  0.32500  1.0000
  O   O22       1.0  0.78900  0.12900  0.82500  1.0000
  O   O23       1.0  0.78900  0.62900  0.67500  1.0000
  O   O24       1.0  0.21100  0.87100  0.17500  1.0000
  O   O25       1.0  0.68900  0.49500  0.08980  1.0000
  O   O26       1.0  0.31100  0.00451  0.59000  1.0000
  O   O27       1.0  0.31100  0.50500  0.91000  1.0000
  O   O28       1.0  0.68900  0.99500  0.41000  1.0000
  O   O29       1.0  0.47500  0.30600  0.20000  1.0000
  O   O30       1.0  0.52500  0.19400  0.70000  1.0000
  O   O31       1.0  0.52500  0.69400  0.80000  1.0000
  O   O32       1.0  0.47500  0.80600  0.30000  1.0000
  O   O33       1.0  0.34000  0.31200  0.06630  1.0000
  O   O34       1.0  0.66000  0.18800  0.56600  1.0000
  O   O35       1.0  0.66000  0.68800  0.93400  1.0000
  O   O36       1.0  0.34000  0.81200  0.43400  1.0000
  Yb  Yb1       1.0  0.12500  0.17800  0.19600  1.0000
  Yb  Yb2       1.0  0.87500  0.32200  0.69600  1.0000
  Yb  Yb3       1.0  0.87500  0.82200  0.80400  1.0000
  Yb  Yb4       1.0  0.12500  0.67800  0.30400  1.0000
