data_image0
_chemical_formula_structural       Cs6F6Mo4O12
_chemical_formula_sum              "Cs6 F6 Mo4 O12"
_cell_length_a       6.07329
_cell_length_b       6.07341
_cell_length_c       14.4047
_cell_angle_alpha    90.0002
_cell_angle_beta     89.9958
_cell_angle_gamma    120.037

_space_group_name_H-M_alt    "P 1"
_space_group_IT_number       1

loop_
  _space_group_symop_operation_xyz
  'x, y, z'

loop_
  _atom_site_type_symbol
  _atom_site_label
  _atom_site_symmetry_multiplicity
  _atom_site_fract_x
  _atom_site_fract_y
  _atom_site_fract_z
  _atom_site_occupancy
  Cs  Cs1       1.0  0.33300  0.66700  0.42700  1.0000
  Cs  Cs2       1.0  0.66700  0.33300  0.92700  1.0000
  Cs  Cs3       1.0  0.66700  0.33300  0.57300  1.0000
  Cs  Cs4       1.0  0.33300  0.66700  0.07300  1.0000
  Cs  Cs5       1.0  0.33400  0.66700  0.75000  1.0000
  Cs  Cs6       1.0  0.66700  0.33300  0.25000  1.0000
  F   F1        1.0  0.13900  0.27700  0.25000  1.0000
  F   F2        1.0  0.86100  0.72300  0.75000  1.0000
  F   F3        1.0  0.72300  0.86100  0.25000  1.0000
  F   F4        1.0  0.13900  0.86100  0.25000  1.0000
  F   F5        1.0  0.86100  0.13900  0.75000  1.0000
  F   F6        1.0  0.27700  0.13900  0.75000  1.0000
  Mo  Mo1       1.0  1.00000  1.00000  0.13600  1.0000
  Mo  Mo2       1.0  0.00000  0.00001  0.63600  1.0000
  Mo  Mo3       1.0  0.00003  0.00002  0.86400  1.0000
  Mo  Mo4       1.0  0.00003  0.00000  0.36400  1.0000
  O   O1        1.0  0.15300  0.30700  0.58800  1.0000
  O   O2        1.0  0.84700  0.69400  0.08800  1.0000
  O   O3        1.0  0.69400  0.84700  0.58800  1.0000
  O   O4        1.0  0.15300  0.84700  0.58800  1.0000
  O   O5        1.0  0.84700  0.15300  0.08810  1.0000
  O   O6        1.0  0.30600  0.15300  0.08800  1.0000
  O   O7        1.0  0.84700  0.69400  0.41200  1.0000
  O   O8        1.0  0.84700  0.15300  0.41200  1.0000
  O   O9        1.0  0.30600  0.15300  0.41200  1.0000
  O   O10       1.0  0.69400  0.84700  0.91200  1.0000
  O   O11       1.0  0.15300  0.84700  0.91200  1.0000
  O   O12       1.0  0.15300  0.30600  0.91200  1.0000
