data_image0
_chemical_formula_structural       Br18Na6U3
_chemical_formula_sum              "Br18 Na6 U3"
_cell_length_a       12.3135
_cell_length_b       12.2897
_cell_length_c       6.42462
_cell_angle_alpha    90.056
_cell_angle_beta     90
_cell_angle_gamma    120.064

_space_group_name_H-M_alt    "P 1"
_space_group_IT_number       1

loop_
  _space_group_symop_operation_xyz
  'x, y, z'

loop_
  _atom_site_type_symbol
  _atom_site_label
  _atom_site_symmetry_multiplicity
  _atom_site_fract_x
  _atom_site_fract_y
  _atom_site_fract_z
  _atom_site_occupancy
  Br  Br1       1.0  0.44000  0.88100  0.25400  1.0000
  Br  Br2       1.0  0.11900  0.55900  0.25500  1.0000
  Br  Br3       1.0  0.44000  0.55900  0.25400  1.0000
  Br  Br4       1.0  0.55900  0.11900  0.74600  1.0000
  Br  Br5       1.0  0.56000  0.44100  0.74500  1.0000
  Br  Br6       1.0  0.88100  0.44100  0.74600  1.0000
  Br  Br7       1.0  0.22300  0.44600  0.73100  1.0000
  Br  Br8       1.0  0.55400  0.77700  0.73000  1.0000
  Br  Br9       1.0  0.22300  0.77700  0.73000  1.0000
  Br  Br10      1.0  0.77700  0.55400  0.26900  1.0000
  Br  Br11      1.0  0.77700  0.22300  0.27000  1.0000
  Br  Br12      1.0  0.44600  0.22300  0.27000  1.0000
  Br  Br13      1.0  0.10600  0.21200  0.25100  1.0000
  Br  Br14      1.0  0.78800  0.89400  0.25100  1.0000
  Br  Br15      1.0  0.10600  0.89400  0.25100  1.0000
  Br  Br16      1.0  0.89400  0.78800  0.74900  1.0000
  Br  Br17      1.0  0.89400  0.10600  0.74900  1.0000
  Br  Br18      1.0  0.21200  0.10600  0.74900  1.0000
  Na  Na1       1.0  0.33600  0.00000  0.00000  1.0000
  Na  Na2       1.0  0.00000  0.33600  0.00000  1.0000
  Na  Na3       1.0  0.66400  0.66400  0.00012  1.0000
  Na  Na4       1.0  0.66400  0.00000  0.00000  1.0000
  Na  Na5       1.0  0.00037  0.66400  0.00034  1.0000
  Na  Na6       1.0  0.33600  0.33600  0.00000  1.0000
  U   U1        1.0  0.00004  0.00000  0.00000  1.0000
  U   U2        1.0  0.33300  0.66700  0.50000  1.0000
  U   U3        1.0  0.66700  0.33300  0.50000  1.0000
