data_image0
_chemical_formula_structural       O6ThTi2
_chemical_formula_sum              "O6 Th1 Ti2"
_cell_length_a       3.8418
_cell_length_b       5.30041
_cell_length_c       6.59954
_cell_angle_alpha    95.8002
_cell_angle_beta     106.922
_cell_angle_gamma    111.248

_space_group_name_H-M_alt    "P 1"
_space_group_IT_number       1

loop_
  _space_group_symop_operation_xyz
  'x, y, z'

loop_
  _atom_site_type_symbol
  _atom_site_label
  _atom_site_symmetry_multiplicity
  _atom_site_fract_x
  _atom_site_fract_y
  _atom_site_fract_z
  _atom_site_occupancy
  O   O1        1.0  0.44600  0.78900  0.10400  1.0000
  O   O2        1.0  0.33600  0.35900  0.31300  1.0000
  O   O3        1.0  0.12600  0.84900  0.40300  1.0000
  O   O4        1.0  0.87400  0.15100  0.59700  1.0000
  O   O5        1.0  0.66400  0.64100  0.68700  1.0000
  O   O6        1.0  0.55400  0.21100  0.89600  1.0000
  Th  Th1       1.0  0.00000  0.00000  0.00000  1.0000
  Ti  Ti1       1.0  0.57100  0.74800  0.39400  1.0000
  Ti  Ti2       1.0  0.42900  0.25200  0.60600  1.0000
