data_image0
_chemical_formula_structural       B80H104
_chemical_formula_sum              "B80 H104"
_cell_length_a       13.6534
_cell_length_b       13.6537
_cell_length_c       13.6549
_cell_angle_alpha    130.448
_cell_angle_beta     130.174
_cell_angle_gamma    72.9155

_space_group_name_H-M_alt    "P 1"
_space_group_IT_number       1

loop_
  _space_group_symop_operation_xyz
  'x, y, z'

loop_
  _atom_site_type_symbol
  _atom_site_label
  _atom_site_symmetry_multiplicity
  _atom_site_fract_x
  _atom_site_fract_y
  _atom_site_fract_z
  _atom_site_occupancy
  B   B1        1.0  0.19800  0.34100  0.38500  1.0000
  B   B2        1.0  0.95600  0.81300  0.61500  1.0000
  B   B3        1.0  0.09030  0.20700  0.64300  1.0000
  B   B4        1.0  0.56400  0.44700  0.35700  1.0000
  B   B5        1.0  0.69800  0.31300  0.85700  1.0000
  B   B6        1.0  0.45600  0.84100  0.14300  1.0000
  B   B7        1.0  0.59000  0.94700  0.88400  1.0000
  B   B8        1.0  0.06370  0.70700  0.11700  1.0000
  B   B9        1.0  0.02980  0.35300  0.28900  1.0000
  B   B10       1.0  0.06460  0.74100  0.71100  1.0000
  B   B11       1.0  0.10200  0.31600  0.82300  1.0000
  B   B12       1.0  0.49300  0.27900  0.17700  1.0000
  B   B13       1.0  0.53000  0.24100  0.67700  1.0000
  B   B14       1.0  0.56500  0.85300  0.32300  1.0000
  B   B15       1.0  0.60200  0.77900  0.78600  1.0000
  B   B16       1.0  0.99300  0.81600  0.21400  1.0000
  B   B17       1.0  0.19700  0.15400  0.26100  1.0000
  B   B18       1.0  0.89300  0.93600  0.73900  1.0000
  B   B19       1.0  0.90400  0.14300  0.45700  1.0000
  B   B20       1.0  0.68600  0.44700  0.54300  1.0000
  B   B21       1.0  0.69700  0.43600  0.04280  1.0000
  B   B22       1.0  0.39300  0.65400  0.95700  1.0000
  B   B23       1.0  0.40400  0.94700  0.76100  1.0000
  B   B24       1.0  0.18600  0.64300  0.23900  1.0000
  B   B25       1.0  0.12700  0.06000  0.25800  1.0000
  B   B26       1.0  0.80200  0.86900  0.74200  1.0000
  B   B27       1.0  0.81100  0.05190  0.43300  1.0000
  B   B28       1.0  0.61900  0.37800  0.56700  1.0000
  B   B29       1.0  0.62700  0.36900  0.06710  1.0000
  B   B30       1.0  0.30200  0.56000  0.93300  1.0000
  B   B31       1.0  0.31100  0.87800  0.75900  1.0000
  B   B32       1.0  0.11900  0.55200  0.24100  1.0000
  B   B33       1.0  0.97300  0.10100  0.20300  1.0000
  B   B34       1.0  0.89900  0.77000  0.79700  1.0000
  B   B35       1.0  0.85100  0.14900  0.62800  1.0000
  B   B36       1.0  0.52000  0.22300  0.37200  1.0000
  B   B37       1.0  0.47300  0.27000  0.87200  1.0000
  B   B38       1.0  0.39900  0.60100  0.12800  1.0000
  B   B39       1.0  0.35100  0.72300  0.70300  1.0000
  B   B40       1.0  0.02040  0.64900  0.29700  1.0000
  B   B41       1.0  0.07790  0.22300  0.17200  1.0000
  B   B42       1.0  0.05020  0.90600  0.82800  1.0000
  B   B43       1.0  0.97200  0.30100  0.64500  1.0000
  B   B44       1.0  0.65600  0.32700  0.35500  1.0000
  B   B45       1.0  0.57800  0.40500  0.85500  1.0000
  B   B46       1.0  0.55000  0.72300  0.14500  1.0000
  B   B47       1.0  0.47200  0.82700  0.67100  1.0000
  B   B48       1.0  0.15600  0.80100  0.32900  1.0000
  B   B49       1.0  0.02910  0.06630  0.09740  1.0000
  B   B50       1.0  0.96900  0.93200  0.90300  1.0000
  B   B51       1.0  0.81600  0.21900  0.53700  1.0000
  B   B52       1.0  0.68200  0.27900  0.46300  1.0000
  B   B53       1.0  0.52900  0.43200  0.96300  1.0000
  B   B54       1.0  0.46900  0.56600  0.03720  1.0000
  B   B55       1.0  0.31600  0.77900  0.59700  1.0000
  B   B56       1.0  0.18200  0.71900  0.40300  1.0000
  B   B57       1.0  0.93800  0.19100  0.13800  1.0000
  B   B58       1.0  0.05270  0.80000  0.86200  1.0000
  B   B59       1.0  0.94000  0.30300  0.75300  1.0000
  B   B60       1.0  0.55100  0.18700  0.24700  1.0000
  B   B61       1.0  0.43800  0.30000  0.74700  1.0000
  B   B62       1.0  0.55300  0.69100  0.25300  1.0000
  B   B63       1.0  0.44000  0.68700  0.63600  1.0000
  B   B64       1.0  0.05060  0.80400  0.36400  1.0000
  B   B65       1.0  0.97400  0.29000  0.32900  1.0000
  B   B66       1.0  0.96100  0.64500  0.67100  1.0000
  B   B67       1.0  0.03930  0.21200  0.81600  1.0000
  B   B68       1.0  0.39600  0.22300  0.18400  1.0000
  B   B69       1.0  0.47400  0.14500  0.68300  1.0000
  B   B70       1.0  0.46100  0.79000  0.31600  1.0000
  B   B71       1.0  0.53900  0.72300  0.82700  1.0000
  B   B72       1.0  0.89600  0.71200  0.17300  1.0000
  B   B73       1.0  0.12700  0.40000  0.48200  1.0000
  B   B74       1.0  0.91700  0.64500  0.51800  1.0000
  B   B75       1.0  0.14900  0.16900  0.77300  1.0000
  B   B76       1.0  0.39600  0.37600  0.22700  1.0000
  B   B77       1.0  0.62700  0.14500  0.72700  1.0000
  B   B78       1.0  0.41700  0.90000  0.27300  1.0000
  B   B79       1.0  0.64900  0.87700  0.98000  1.0000
  B   B80       1.0  0.89600  0.66900  0.01970  1.0000
  H   H1        1.0  0.23400  0.15800  0.38100  1.0000
  H   H2        1.0  0.77700  0.85300  0.61900  1.0000
  H   H3        1.0  0.90900  0.02700  0.42400  1.0000
  H   H4        1.0  0.60300  0.48500  0.57600  1.0000
  H   H5        1.0  0.73400  0.35300  0.07600  1.0000
  H   H6        1.0  0.27700  0.65800  0.92400  1.0000
  H   H7        1.0  0.40900  0.98500  0.88200  1.0000
  H   H8        1.0  0.10300  0.52700  0.11800  1.0000
  H   H9        1.0  0.07830  0.12000  0.33900  1.0000
  H   H10       1.0  0.78100  0.73900  0.66100  1.0000
  H   H11       1.0  0.87000  0.03020  0.54100  1.0000
  H   H12       1.0  0.48900  0.32900  0.45900  1.0000
  H   H13       1.0  0.57800  0.23900  0.95800  1.0000
  H   H14       1.0  0.28100  0.62000  0.04150  1.0000
  H   H15       1.0  0.37000  0.82900  0.84000  1.0000
  H   H16       1.0  0.98900  0.53000  0.16000  1.0000
  H   H17       1.0  0.08020  0.31500  0.46900  1.0000
  H   H18       1.0  0.84600  0.61100  0.53100  1.0000
  H   H19       1.0  0.06470  0.09640  0.73500  1.0000
  H   H20       1.0  0.36200  0.33000  0.26500  1.0000
  H   H21       1.0  0.58000  0.11100  0.76500  1.0000
  H   H22       1.0  0.34600  0.81500  0.23400  1.0000
  H   H23       1.0  0.56500  0.83000  0.96800  1.0000
  H   H24       1.0  0.86200  0.59600  0.03170  1.0000
  H   H25       1.0  0.23600  0.35100  0.50900  1.0000
  H   H26       1.0  0.84200  0.72700  0.49100  1.0000
  H   H27       1.0  0.10200  0.09310  0.61600  1.0000
  H   H28       1.0  0.47700  0.48600  0.38400  1.0000
  H   H29       1.0  0.73600  0.22700  0.88400  1.0000
  H   H30       1.0  0.34200  0.85100  0.11600  1.0000
  H   H31       1.0  0.60200  0.98600  0.00842  1.0000
  H   H32       1.0  0.97700  0.59300  0.99200  1.0000
  H   H33       1.0  0.16200  0.50400  0.61000  1.0000
  H   H34       1.0  0.89400  0.55200  0.39000  1.0000
  H   H35       1.0  0.25400  0.14600  0.84300  1.0000
  H   H36       1.0  0.30300  0.41100  0.15700  1.0000
  H   H37       1.0  0.66200  0.05150  0.65800  1.0000
  H   H38       1.0  0.39400  0.00405  0.34200  1.0000
  H   H39       1.0  0.75400  0.91100  0.10700  1.0000
  H   H40       1.0  0.80400  0.64600  0.89300  1.0000
  H   H41       1.0  0.28400  0.41300  0.44500  1.0000
  H   H42       1.0  0.96800  0.84000  0.55500  1.0000
  H   H43       1.0  0.16200  0.21900  0.62800  1.0000
  H   H44       1.0  0.59100  0.53400  0.37200  1.0000
  H   H45       1.0  0.78400  0.34000  0.87200  1.0000
  H   H46       1.0  0.46800  0.91300  0.12800  1.0000
  H   H47       1.0  0.66200  0.03420  0.94300  1.0000
  H   H48       1.0  0.09090  0.71900  0.05680  1.0000
  H   H49       1.0  0.82400  0.16600  0.02570  1.0000
  H   H50       1.0  0.14100  0.79900  0.97400  1.0000
  H   H51       1.0  0.91500  0.39100  0.84300  1.0000
  H   H52       1.0  0.54900  0.07250  0.15700  1.0000
  H   H53       1.0  0.32400  0.29900  0.65800  1.0000
  H   H54       1.0  0.64100  0.66600  0.34200  1.0000
  H   H55       1.0  0.41500  0.57300  0.52400  1.0000
  H   H56       1.0  0.04880  0.89100  0.47600  1.0000
  H   H57       1.0  0.98500  0.43200  0.26700  1.0000
  H   H58       1.0  0.16500  0.71800  0.73300  1.0000
  H   H59       1.0  0.18000  0.41700  0.94700  1.0000
  H   H60       1.0  0.47000  0.23300  0.05290  1.0000
  H   H61       1.0  0.48500  0.21800  0.55300  1.0000
  H   H62       1.0  0.66500  0.93200  0.44700  1.0000
  H   H63       1.0  0.68000  0.73300  0.76300  1.0000
  H   H64       1.0  0.97000  0.91700  0.23700  1.0000
  H   H65       1.0  0.08280  0.22600  0.09030  1.0000
  H   H66       1.0  0.13600  0.99300  0.91000  1.0000
  H   H67       1.0  0.97600  0.38700  0.64400  1.0000
  H   H68       1.0  0.74300  0.33200  0.35600  1.0000
  H   H69       1.0  0.58300  0.49200  0.85700  1.0000
  H   H70       1.0  0.63600  0.72600  0.14300  1.0000
  H   H71       1.0  0.47600  0.83200  0.58900  1.0000
  H   H72       1.0  0.24300  0.88700  0.41100  1.0000
  H   H73       1.0  0.89000  0.03030  0.14800  1.0000
  H   H74       1.0  0.88200  0.74100  0.85200  1.0000
  H   H75       1.0  0.78100  0.13200  0.64100  1.0000
  H   H76       1.0  0.49100  0.14000  0.35900  1.0000
  H   H77       1.0  0.39000  0.24100  0.85900  1.0000
  H   H78       1.0  0.38200  0.53000  0.14100  1.0000
  H   H79       1.0  0.28100  0.64000  0.64900  1.0000
  H   H80       1.0  0.99100  0.63200  0.35100  1.0000
  H   H81       1.0  0.89200  0.32300  0.34700  1.0000
  H   H82       1.0  0.97700  0.54500  0.65300  1.0000
  H   H83       1.0  0.07200  0.22800  0.93100  1.0000
  H   H84       1.0  0.29700  0.14100  0.06860  1.0000
  H   H85       1.0  0.39200  0.04500  0.56800  1.0000
  H   H86       1.0  0.47700  0.82300  0.43200  1.0000
  H   H87       1.0  0.57200  0.64100  0.84400  1.0000
  H   H88       1.0  0.79700  0.72800  0.15600  1.0000
  H   H89       1.0  0.28300  0.12100  0.25100  1.0000
  H   H90       1.0  0.87000  0.03170  0.74900  1.0000
  H   H91       1.0  0.87200  0.12000  0.33900  1.0000
  H   H92       1.0  0.78100  0.53300  0.66100  1.0000
  H   H93       1.0  0.78300  0.53200  0.16100  1.0000
  H   H94       1.0  0.37000  0.62100  0.83900  1.0000
  H   H95       1.0  0.37200  0.03320  0.75200  1.0000
  H   H96       1.0  0.28100  0.62000  0.24800  1.0000
  H   H97       1.0  0.16400  0.97000  0.25900  1.0000
  H   H98       1.0  0.71100  0.90500  0.74100  1.0000
  H   H99       1.0  0.72100  0.96000  0.30600  1.0000
  H   H100      1.0  0.65400  0.41600  0.69400  1.0000
  H   H101      1.0  0.66400  0.40500  0.19400  1.0000
  H   H102      1.0  0.21100  0.47000  0.80600  1.0000
  H   H103      1.0  0.22100  0.91600  0.76100  1.0000
  H   H104      1.0  0.15400  0.46000  0.23900  1.0000
