data_image0
_chemical_formula_structural       B20H16N8
_chemical_formula_sum              "B20 H16 N8"
_cell_length_a       8.75286
_cell_length_b       8.82356
_cell_length_c       8.75286
_cell_angle_alpha    103.517
_cell_angle_beta     138.624
_cell_angle_gamma    90.7958

_space_group_name_H-M_alt    "P 1"
_space_group_IT_number       1

loop_
  _space_group_symop_operation_xyz
  'x, y, z'

loop_
  _atom_site_type_symbol
  _atom_site_label
  _atom_site_symmetry_multiplicity
  _atom_site_fract_x
  _atom_site_fract_y
  _atom_site_fract_z
  _atom_site_occupancy
  B   B1        1.0  0.49700  0.29800  0.65500  1.0000
  B   B2        1.0  0.35800  0.20200  0.70000  1.0000
  B   B3        1.0  0.50300  0.70200  0.34500  1.0000
  B   B4        1.0  0.64200  0.79800  0.30000  1.0000
  B   B5        1.0  0.27300  0.08880  0.43700  1.0000
  B   B6        1.0  0.34900  0.41100  0.68400  1.0000
  B   B7        1.0  0.72700  0.91100  0.56300  1.0000
  B   B8        1.0  0.65100  0.58900  0.31600  1.0000
  B   B9        1.0  0.32300  0.21600  0.35400  1.0000
  B   B10       1.0  0.13700  0.28400  0.60700  1.0000
  B   B11       1.0  0.67700  0.78400  0.64600  1.0000
  B   B12       1.0  0.86300  0.71600  0.39300  1.0000
  B   B13       1.0  0.03930  0.17600  0.20100  1.0000
  B   B14       1.0  0.02500  0.32400  0.36400  1.0000
  B   B15       1.0  0.96100  0.82400  0.79900  1.0000
  B   B16       1.0  0.97500  0.67600  0.63600  1.0000
  B   B17       1.0  0.26100  0.38300  0.41600  1.0000
  B   B18       1.0  0.03290  0.11700  0.37800  1.0000
  B   B19       1.0  0.73900  0.61700  0.58400  1.0000
  B   B20       1.0  0.96700  0.88300  0.62200  1.0000
  H   H1        1.0  0.27600  0.49500  0.37100  1.0000
  H   H2        1.0  0.87600  0.00457  0.28100  1.0000
  H   H3        1.0  0.72400  0.50500  0.62900  1.0000
  H   H4        1.0  0.12400  0.99500  0.71900  1.0000
  H   H5        1.0  0.71200  0.34100  0.81400  1.0000
  H   H6        1.0  0.47300  0.15900  0.87100  1.0000
  H   H7        1.0  0.28800  0.65900  0.18600  1.0000
  H   H8        1.0  0.52700  0.84100  0.12900  1.0000
  H   H9        1.0  0.87300  0.11900  0.98000  1.0000
  H   H10       1.0  0.86100  0.38100  0.25400  1.0000
  H   H11       1.0  0.12700  0.88100  0.02010  1.0000
  H   H12       1.0  0.13900  0.61900  0.74600  1.0000
  H   H13       1.0  0.29800  0.95700  0.41000  1.0000
  H   H14       1.0  0.45300  0.54300  0.84100  1.0000
  H   H15       1.0  0.70200  0.04300  0.59000  1.0000
  H   H16       1.0  0.54700  0.45700  0.15900  1.0000
  N   N1        1.0  0.40800  0.19000  0.26300  1.0000
  N   N2        1.0  0.07220  0.31000  0.71800  1.0000
  N   N3        1.0  0.59200  0.81000  0.73700  1.0000
  N   N4        1.0  0.92800  0.69000  0.28200  1.0000
  N   N5        1.0  0.48300  0.17100  0.19900  1.0000
  N   N6        1.0  0.02770  0.32900  0.81200  1.0000
  N   N7        1.0  0.51700  0.82900  0.80100  1.0000
  N   N8        1.0  0.97200  0.67100  0.18800  1.0000
