data_image0
_chemical_formula_structural       La8Ni4O16
_chemical_formula_sum              "La8 Ni4 O16"
_cell_length_a       5.41473
_cell_length_b       12.3794
_cell_length_c       5.40644
_cell_angle_alpha    90
_cell_angle_beta     90
_cell_angle_gamma    90

_space_group_name_H-M_alt    "P 1"
_space_group_IT_number       1

loop_
  _space_group_symop_operation_xyz
  'x, y, z'

loop_
  _atom_site_type_symbol
  _atom_site_label
  _atom_site_symmetry_multiplicity
  _atom_site_fract_x
  _atom_site_fract_y
  _atom_site_fract_z
  _atom_site_occupancy
  La  La1       1.0  0.50000  0.86300  0.00000  1.0000
  La  La2       1.0  0.50000  0.13700  0.00000  1.0000
  La  La3       1.0  0.00000  0.63700  0.00000  1.0000
  La  La4       1.0  0.00000  0.36300  0.00000  1.0000
  La  La5       1.0  0.50000  0.63700  0.50000  1.0000
  La  La6       1.0  0.50000  0.36300  0.50000  1.0000
  La  La7       1.0  0.00000  0.86300  0.50000  1.0000
  La  La8       1.0  0.00000  0.13700  0.50000  1.0000
  Ni  Ni1       1.0  0.50000  0.50000  0.00000  1.0000
  Ni  Ni2       1.0  0.00000  0.00000  0.00000  1.0000
  Ni  Ni3       1.0  0.50000  0.00000  0.50000  1.0000
  Ni  Ni4       1.0  0.00000  0.50000  0.50000  1.0000
  O   O1        1.0  0.50000  0.67700  0.00000  1.0000
  O   O2        1.0  0.50000  0.32300  0.00000  1.0000
  O   O3        1.0  0.00000  0.82300  0.00000  1.0000
  O   O4        1.0  0.00000  0.17700  0.00000  1.0000
  O   O5        1.0  0.75000  0.50000  0.25000  1.0000
  O   O6        1.0  0.25000  0.50000  0.25000  1.0000
  O   O7        1.0  0.75000  0.50000  0.75000  1.0000
  O   O8        1.0  0.25000  0.50000  0.75000  1.0000
  O   O9        1.0  0.75000  0.00021  0.75000  1.0000
  O   O10       1.0  0.25000  0.00000  0.75000  1.0000
  O   O11       1.0  0.75000  0.00000  0.25000  1.0000
  O   O12       1.0  0.25000  0.00021  0.25000  1.0000
  O   O13       1.0  0.50000  0.82300  0.50000  1.0000
  O   O14       1.0  0.50000  0.17700  0.50000  1.0000
  O   O15       1.0  0.00000  0.67700  0.50000  1.0000
  O   O16       1.0  0.00000  0.32300  0.50000  1.0000
