data_image0
_chemical_formula_structural       Li24Na8O32Si8
_chemical_formula_sum              "Li24 Na8 O32 Si8"
_cell_length_a       9.69435
_cell_length_b       9.69435
_cell_length_c       9.69435
_cell_angle_alpha    114.021
_cell_angle_beta     114.021
_cell_angle_gamma    100.71

_space_group_name_H-M_alt    "P 1"
_space_group_IT_number       1

loop_
  _space_group_symop_operation_xyz
  'x, y, z'

loop_
  _atom_site_type_symbol
  _atom_site_label
  _atom_site_symmetry_multiplicity
  _atom_site_fract_x
  _atom_site_fract_y
  _atom_site_fract_z
  _atom_site_occupancy
  Li  Li1       1.0  0.91000  0.10200  0.13300  1.0000
  Li  Li2       1.0  0.96900  0.77700  0.86700  1.0000
  Li  Li3       1.0  0.85200  0.21900  0.69200  1.0000
  Li  Li4       1.0  0.52700  0.16000  0.30800  1.0000
  Li  Li5       1.0  0.84000  0.14800  0.36700  1.0000
  Li  Li6       1.0  0.78100  0.47300  0.63300  1.0000
  Li  Li7       1.0  0.89800  0.03110  0.80800  1.0000
  Li  Li8       1.0  0.22300  0.09010  0.19200  1.0000
  Li  Li9       1.0  0.30100  0.97600  0.63900  1.0000
  Li  Li10      1.0  0.33700  0.66200  0.36100  1.0000
  Li  Li11      1.0  0.72600  0.58700  0.17500  1.0000
  Li  Li12      1.0  0.41200  0.55100  0.82500  1.0000
  Li  Li13      1.0  0.44900  0.27400  0.86100  1.0000
  Li  Li14      1.0  0.41300  0.58800  0.13900  1.0000
  Li  Li15      1.0  0.02430  0.66300  0.32500  1.0000
  Li  Li16      1.0  0.33800  0.69900  0.67500  1.0000
  Li  Li17      1.0  0.69100  0.83700  0.13500  1.0000
  Li  Li18      1.0  0.70200  0.55600  0.86500  1.0000
  Li  Li19      1.0  0.58700  0.95200  0.64600  1.0000
  Li  Li20      1.0  0.30600  0.94100  0.35400  1.0000
  Li  Li21      1.0  0.05920  0.41300  0.36500  1.0000
  Li  Li22      1.0  0.04760  0.69400  0.63500  1.0000
  Li  Li23      1.0  0.16300  0.29800  0.85400  1.0000
  Li  Li24      1.0  0.44400  0.30900  0.14600  1.0000
  Na  Na1       1.0  0.96600  0.96900  0.52900  1.0000
  Na  Na2       1.0  0.44000  0.43800  0.47100  1.0000
  Na  Na3       1.0  0.71900  0.69000  0.50300  1.0000
  Na  Na4       1.0  0.18800  0.21600  0.49700  1.0000
  Na  Na5       1.0  0.78400  0.28100  0.97100  1.0000
  Na  Na6       1.0  0.31000  0.81200  0.02860  1.0000
  Na  Na7       1.0  0.03090  0.56000  0.99700  1.0000
  Na  Na8       1.0  0.56200  0.03390  0.00295  1.0000
  O   O1        1.0  0.48300  0.72700  0.58900  1.0000
  O   O2        1.0  0.13800  0.89400  0.41100  1.0000
  O   O3        1.0  0.47700  0.38800  0.74400  1.0000
  O   O4        1.0  0.64400  0.73300  0.25600  1.0000
  O   O5        1.0  0.26700  0.52300  0.91100  1.0000
  O   O6        1.0  0.61200  0.35600  0.08920  1.0000
  O   O7        1.0  0.27300  0.86200  0.75600  1.0000
  O   O8        1.0  0.10600  0.51700  0.24400  1.0000
  O   O9        1.0  0.91800  0.98800  0.25300  1.0000
  O   O10       1.0  0.73400  0.66500  0.74700  1.0000
  O   O11       1.0  0.73800  0.98400  0.57000  1.0000
  O   O12       1.0  0.41500  0.16800  0.43000  1.0000
  O   O13       1.0  0.83200  0.26200  0.24700  1.0000
  O   O14       1.0  0.01560  0.58500  0.75300  1.0000
  O   O15       1.0  0.01210  0.26600  0.93000  1.0000
  O   O16       1.0  0.33500  0.08180  0.06970  1.0000
  O   O17       1.0  0.24400  0.13800  0.80000  1.0000
  O   O18       1.0  0.33800  0.44400  0.20000  1.0000
  O   O19       1.0  0.88800  0.58800  0.39400  1.0000
  O   O20       1.0  0.19400  0.49400  0.60600  1.0000
  O   O21       1.0  0.50600  0.11200  0.70000  1.0000
  O   O22       1.0  0.41200  0.80600  0.30000  1.0000
  O   O23       1.0  0.86200  0.66200  0.10600  1.0000
  O   O24       1.0  0.55600  0.75600  0.89400  1.0000
  O   O25       1.0  0.99800  0.26600  0.61600  1.0000
  O   O26       1.0  0.65000  0.38200  0.38400  1.0000
  O   O27       1.0  0.01650  0.90000  0.76800  1.0000
  O   O28       1.0  0.13200  0.24800  0.23200  1.0000
  O   O29       1.0  0.75200  0.98400  0.88400  1.0000
  O   O30       1.0  0.09970  0.86800  0.11600  1.0000
  O   O31       1.0  0.73400  0.35000  0.73200  1.0000
  O   O32       1.0  0.61800  0.00182  0.26800  1.0000
  Si  Si1       1.0  0.64000  0.78500  0.78600  1.0000
  Si  Si2       1.0  0.99900  0.85400  0.21400  1.0000
  Si  Si3       1.0  0.53500  0.24900  0.64500  1.0000
  Si  Si4       1.0  0.60400  0.89000  0.35500  1.0000
  Si  Si5       1.0  0.11000  0.46500  0.71400  1.0000
  Si  Si6       1.0  0.75100  0.39600  0.28600  1.0000
  Si  Si7       1.0  0.21500  0.00068  0.85500  1.0000
  Si  Si8       1.0  0.14600  0.36000  0.14500  1.0000
