data_image0
_chemical_formula_structural       Ge8Li24Na8O32
_chemical_formula_sum              "Ge8 Li24 Na8 O32"
_cell_length_a       9.8681
_cell_length_b       9.8681
_cell_length_c       9.8681
_cell_angle_alpha    113.426
_cell_angle_beta     113.426
_cell_angle_gamma    101.823

_space_group_name_H-M_alt    "P 1"
_space_group_IT_number       1

loop_
  _space_group_symop_operation_xyz
  'x, y, z'

loop_
  _atom_site_type_symbol
  _atom_site_label
  _atom_site_symmetry_multiplicity
  _atom_site_fract_x
  _atom_site_fract_y
  _atom_site_fract_z
  _atom_site_occupancy
  Ge  Ge1       1.0  0.64400  0.84300  0.85500  1.0000
  Ge  Ge2       1.0  0.98800  0.78900  0.14500  1.0000
  Ge  Ge3       1.0  0.59300  0.23800  0.69900  1.0000
  Ge  Ge4       1.0  0.53900  0.89400  0.30100  1.0000
  Ge  Ge5       1.0  0.10600  0.40700  0.64500  1.0000
  Ge  Ge6       1.0  0.76200  0.46100  0.35500  1.0000
  Ge  Ge7       1.0  0.15700  0.01240  0.80100  1.0000
  Ge  Ge8       1.0  0.21100  0.35600  0.19900  1.0000
  Li  Li1       1.0  0.96700  0.10600  0.19200  1.0000
  Li  Li2       1.0  0.91400  0.77500  0.80800  1.0000
  Li  Li3       1.0  0.85600  0.16400  0.63900  1.0000
  Li  Li4       1.0  0.52500  0.21700  0.36100  1.0000
  Li  Li5       1.0  0.78300  0.14400  0.30800  1.0000
  Li  Li6       1.0  0.83600  0.47500  0.69200  1.0000
  Li  Li7       1.0  0.89400  0.08600  0.86100  1.0000
  Li  Li8       1.0  0.22500  0.03260  0.13900  1.0000
  Li  Li9       1.0  0.33900  0.97300  0.67700  1.0000
  Li  Li10      1.0  0.29600  0.66200  0.32300  1.0000
  Li  Li11      1.0  0.72300  0.54600  0.13300  1.0000
  Li  Li12      1.0  0.41200  0.58900  0.86700  1.0000
  Li  Li13      1.0  0.41100  0.27700  0.82300  1.0000
  Li  Li14      1.0  0.45400  0.58800  0.17700  1.0000
  Li  Li15      1.0  0.02740  0.70400  0.36700  1.0000
  Li  Li16      1.0  0.33800  0.66100  0.63300  1.0000
  Li  Li17      1.0  0.70800  0.84400  0.16700  1.0000
  Li  Li18      1.0  0.67700  0.54100  0.83300  1.0000
  Li  Li19      1.0  0.59400  0.92700  0.63600  1.0000
  Li  Li20      1.0  0.29100  0.95800  0.36400  1.0000
  Li  Li21      1.0  0.04160  0.40600  0.33300  1.0000
  Li  Li22      1.0  0.07320  0.70900  0.66700  1.0000
  Li  Li23      1.0  0.15600  0.32300  0.86400  1.0000
  Li  Li24      1.0  0.45900  0.29200  0.13600  1.0000
  Na  Na1       1.0  0.43100  0.94500  0.99600  1.0000
  Na  Na2       1.0  0.94900  0.43500  0.00396  1.0000
  Na  Na3       1.0  0.69500  0.19900  0.01390  1.0000
  Na  Na4       1.0  0.18500  0.68100  0.98600  1.0000
  Na  Na5       1.0  0.31900  0.30500  0.50400  1.0000
  Na  Na6       1.0  0.80100  0.81500  0.49600  1.0000
  Na  Na7       1.0  0.05530  0.05130  0.48600  1.0000
  Na  Na8       1.0  0.56500  0.56900  0.51400  1.0000
  O   O1        1.0  0.48400  0.89300  0.75500  1.0000
  O   O2        1.0  0.13800  0.72900  0.24500  1.0000
  O   O3        1.0  0.64300  0.38800  0.90900  1.0000
  O   O4        1.0  0.47900  0.73400  0.09080  1.0000
  O   O5        1.0  0.26600  0.35700  0.74500  1.0000
  O   O6        1.0  0.61200  0.52100  0.25500  1.0000
  O   O7        1.0  0.10700  0.86200  0.59100  1.0000
  O   O8        1.0  0.27100  0.51600  0.40900  1.0000
  O   O9        1.0  0.74000  0.98000  0.08000  1.0000
  O   O10       1.0  0.90000  0.66000  0.92000  1.0000
  O   O11       1.0  0.73000  0.15000  0.74100  1.0000
  O   O12       1.0  0.41000  0.99000  0.25900  1.0000
  O   O13       1.0  0.01040  0.27000  0.42000  1.0000
  O   O14       1.0  0.85000  0.59000  0.58000  1.0000
  O   O15       1.0  0.01970  0.09970  0.75900  1.0000
  O   O16       1.0  0.34000  0.26000  0.24100  1.0000
  O   O17       1.0  0.36400  0.14200  0.90400  1.0000
  O   O18       1.0  0.23800  0.46100  0.09640  1.0000
  O   O19       1.0  0.89200  0.48800  0.27800  1.0000
  O   O20       1.0  0.21100  0.61400  0.72200  1.0000
  O   O21       1.0  0.38600  0.10800  0.59600  1.0000
  O   O22       1.0  0.51200  0.78900  0.40400  1.0000
  O   O23       1.0  0.85800  0.76200  0.22200  1.0000
  O   O24       1.0  0.53900  0.63600  0.77800  1.0000
  O   O25       1.0  0.99000  0.38800  0.73900  1.0000
  O   O26       1.0  0.64900  0.25100  0.26100  1.0000
  O   O27       1.0  0.13800  0.89900  0.89900  1.0000
  O   O28       1.0  0.00068  0.24000  0.10100  1.0000
  O   O29       1.0  0.76000  0.86200  0.76100  1.0000
  O   O30       1.0  0.10100  0.99900  0.23900  1.0000
  O   O31       1.0  0.61200  0.35100  0.60100  1.0000
  O   O32       1.0  0.74900  0.01020  0.39900  1.0000
