data_image0
_chemical_formula_structural       O16Pb8Pt4
_chemical_formula_sum              "O16 Pb8 Pt4"
_cell_length_a       9.30559
_cell_length_b       7.04623
_cell_length_c       6.38273
_cell_angle_alpha    90
_cell_angle_beta     90
_cell_angle_gamma    90

_space_group_name_H-M_alt    "P 1"
_space_group_IT_number       1

loop_
  _space_group_symop_operation_xyz
  'x, y, z'

loop_
  _atom_site_type_symbol
  _atom_site_label
  _atom_site_symmetry_multiplicity
  _atom_site_fract_x
  _atom_site_fract_y
  _atom_site_fract_z
  _atom_site_occupancy
  O   O1        1.0  0.09010  0.86400  0.00000  1.0000
  O   O2        1.0  0.91000  0.13600  0.00000  1.0000
  O   O3        1.0  0.41000  0.36400  0.00000  1.0000
  O   O4        1.0  0.59000  0.63600  0.00000  1.0000
  O   O5        1.0  0.91800  0.14900  0.50000  1.0000
  O   O6        1.0  0.08160  0.85100  0.50000  1.0000
  O   O7        1.0  0.41800  0.35100  0.50000  1.0000
  O   O8        1.0  0.58200  0.64900  0.50000  1.0000
  O   O9        1.0  0.18100  0.16100  0.25200  1.0000
  O   O10       1.0  0.81900  0.83900  0.25200  1.0000
  O   O11       1.0  0.68100  0.33900  0.74800  1.0000
  O   O12       1.0  0.31900  0.66100  0.74800  1.0000
  O   O13       1.0  0.81900  0.83900  0.74800  1.0000
  O   O14       1.0  0.18100  0.16100  0.74800  1.0000
  O   O15       1.0  0.31900  0.66100  0.25200  1.0000
  O   O16       1.0  0.68100  0.33900  0.25200  1.0000
  Pb  Pb1       1.0  0.32400  0.04350  0.00000  1.0000
  Pb  Pb2       1.0  0.67600  0.95600  0.00000  1.0000
  Pb  Pb3       1.0  0.82400  0.45600  0.00000  1.0000
  Pb  Pb4       1.0  0.17600  0.54400  0.00000  1.0000
  Pb  Pb5       1.0  0.83300  0.60500  0.50000  1.0000
  Pb  Pb6       1.0  0.16700  0.39500  0.50000  1.0000
  Pb  Pb7       1.0  0.33300  0.89500  0.50000  1.0000
  Pb  Pb8       1.0  0.66700  0.10500  0.50000  1.0000
  Pt  Pt1       1.0  0.00000  0.00000  0.25100  1.0000
  Pt  Pt2       1.0  0.50000  0.50000  0.74900  1.0000
  Pt  Pt3       1.0  0.00000  0.00000  0.74900  1.0000
  Pt  Pt4       1.0  0.50000  0.50000  0.25100  1.0000
