data_image0
_chemical_formula_structural       Cs2Lu2O16W4
_chemical_formula_sum              "Cs2 Lu2 O16 W4"
_cell_length_a       8.8703
_cell_length_b       5.07672
_cell_length_c       7.24266
_cell_angle_alpha    90
_cell_angle_beta     96.8967
_cell_angle_gamma    90

_space_group_name_H-M_alt    "P 1"
_space_group_IT_number       1

loop_
  _space_group_symop_operation_xyz
  'x, y, z'

loop_
  _atom_site_type_symbol
  _atom_site_label
  _atom_site_symmetry_multiplicity
  _atom_site_fract_x
  _atom_site_fract_y
  _atom_site_fract_z
  _atom_site_occupancy
  Cs  Cs1       1.0  0.50000  0.90900  0.25000  1.0000
  Cs  Cs2       1.0  0.50000  0.09120  0.75000  1.0000
  Lu  Lu1       1.0  0.00000  0.02740  0.75000  1.0000
  Lu  Lu2       1.0  0.00000  0.97300  0.25000  1.0000
  O   O1        1.0  0.95800  0.74300  0.96600  1.0000
  O   O2        1.0  0.04220  0.74300  0.53400  1.0000
  O   O3        1.0  0.04220  0.25700  0.03410  1.0000
  O   O4        1.0  0.95800  0.25700  0.46600  1.0000
  O   O5        1.0  0.37400  0.39000  0.06360  1.0000
  O   O6        1.0  0.62600  0.39000  0.43600  1.0000
  O   O7        1.0  0.62600  0.61000  0.93600  1.0000
  O   O8        1.0  0.37400  0.61000  0.56400  1.0000
  O   O9        1.0  0.17100  0.65100  0.24400  1.0000
  O   O10       1.0  0.82900  0.65100  0.25600  1.0000
  O   O11       1.0  0.82900  0.34900  0.75600  1.0000
  O   O12       1.0  0.17100  0.34900  0.74400  1.0000
  O   O13       1.0  0.22800  0.83800  0.89000  1.0000
  O   O14       1.0  0.77200  0.83800  0.61000  1.0000
  O   O15       1.0  0.77200  0.16200  0.11000  1.0000
  O   O16       1.0  0.22800  0.16200  0.39000  1.0000
  W   W1        1.0  0.19500  0.52100  0.99100  1.0000
  W   W2        1.0  0.80500  0.52100  0.50900  1.0000
  W   W3        1.0  0.80500  0.47900  0.00919  1.0000
  W   W4        1.0  0.19500  0.47900  0.49100  1.0000
