data_image0
_chemical_formula_structural       Ba2F20Zr4
_chemical_formula_sum              "Ba2 F20 Zr4"
_cell_length_a       7.63319
_cell_length_b       7.63327
_cell_length_c       8.48114
_cell_angle_alpha    83.0701
_cell_angle_beta     96.9296
_cell_angle_gamma    40.4392

_space_group_name_H-M_alt    "P 1"
_space_group_IT_number       1

loop_
  _space_group_symop_operation_xyz
  'x, y, z'

loop_
  _atom_site_type_symbol
  _atom_site_label
  _atom_site_symmetry_multiplicity
  _atom_site_fract_x
  _atom_site_fract_y
  _atom_site_fract_z
  _atom_site_occupancy
  Ba  Ba1       1.0  0.18700  0.18700  0.25000  1.0000
  Ba  Ba2       1.0  0.81300  0.81300  0.75000  1.0000
  F   F1        1.0  0.37400  0.73900  0.45700  1.0000
  F   F2        1.0  0.73800  0.37400  0.04250  1.0000
  F   F3        1.0  0.62600  0.26200  0.54300  1.0000
  F   F4        1.0  0.26200  0.62600  0.95800  1.0000
  F   F5        1.0  0.44400  0.44400  0.25000  1.0000
  F   F6        1.0  0.55600  0.55600  0.75000  1.0000
  F   F7        1.0  0.99400  0.99400  0.25000  1.0000
  F   F8        1.0  0.00613  0.00611  0.75000  1.0000
  F   F9        1.0  0.35700  0.82800  0.12900  1.0000
  F   F10       1.0  0.82800  0.35700  0.37200  1.0000
  F   F11       1.0  0.64300  0.17200  0.87200  1.0000
  F   F12       1.0  0.17200  0.64300  0.62800  1.0000
  F   F13       1.0  0.73600  0.68900  0.51900  1.0000
  F   F14       1.0  0.68900  0.73600  0.98100  1.0000
  F   F15       1.0  0.26400  0.31100  0.48100  1.0000
  F   F16       1.0  0.31100  0.26400  0.01890  1.0000
  F   F17       1.0  0.72500  0.96000  0.34200  1.0000
  F   F18       1.0  0.96000  0.72500  0.15800  1.0000
  F   F19       1.0  0.27500  0.04040  0.65800  1.0000
  F   F20       1.0  0.04040  0.27500  0.84200  1.0000
  Zr  Zr1       1.0  0.62200  0.19500  0.09700  1.0000
  Zr  Zr2       1.0  0.19500  0.62200  0.40300  1.0000
  Zr  Zr3       1.0  0.37800  0.80500  0.90300  1.0000
  Zr  Zr4       1.0  0.80500  0.37800  0.59700  1.0000
