data_image0
_chemical_formula_structural       I8K32Li8O48
_chemical_formula_sum              "I8 K32 Li8 O48"
_cell_length_a       12.7168
_cell_length_b       9.87607
_cell_length_c       10.6783
_cell_angle_alpha    90
_cell_angle_beta     90
_cell_angle_gamma    90

_space_group_name_H-M_alt    "P 1"
_space_group_IT_number       1

loop_
  _space_group_symop_operation_xyz
  'x, y, z'

loop_
  _atom_site_type_symbol
  _atom_site_label
  _atom_site_symmetry_multiplicity
  _atom_site_fract_x
  _atom_site_fract_y
  _atom_site_fract_z
  _atom_site_occupancy
  I   I1        1.0  0.89200  0.04650  0.26100  1.0000
  I   I2        1.0  0.60800  0.95300  0.76100  1.0000
  I   I3        1.0  0.39200  0.45300  0.73900  1.0000
  I   I4        1.0  0.10800  0.54700  0.23900  1.0000
  I   I5        1.0  0.10800  0.95300  0.73900  1.0000
  I   I6        1.0  0.39200  0.04650  0.23900  1.0000
  I   I7        1.0  0.60800  0.54700  0.26100  1.0000
  I   I8        1.0  0.89200  0.45300  0.76100  1.0000
  K   K1        1.0  0.68500  0.20700  0.18200  1.0000
  K   K2        1.0  0.81500  0.79300  0.68200  1.0000
  K   K3        1.0  0.18500  0.29300  0.81800  1.0000
  K   K4        1.0  0.31500  0.70700  0.31800  1.0000
  K   K5        1.0  0.31500  0.79300  0.81800  1.0000
  K   K6        1.0  0.18500  0.20700  0.31800  1.0000
  K   K7        1.0  0.81500  0.70700  0.18200  1.0000
  K   K8        1.0  0.68500  0.29300  0.68200  1.0000
  K   K9        1.0  0.92600  0.65700  0.47400  1.0000
  K   K10       1.0  0.57400  0.34300  0.97400  1.0000
  K   K11       1.0  0.42600  0.84300  0.52600  1.0000
  K   K12       1.0  0.07390  0.15700  0.02640  1.0000
  K   K13       1.0  0.07390  0.34300  0.52600  1.0000
  K   K14       1.0  0.42600  0.65700  0.02640  1.0000
  K   K15       1.0  0.57400  0.15700  0.47400  1.0000
  K   K16       1.0  0.92600  0.84300  0.97400  1.0000
  K   K17       1.0  0.89000  0.05870  0.56700  1.0000
  K   K18       1.0  0.61000  0.94100  0.06680  1.0000
  K   K19       1.0  0.39000  0.44100  0.43300  1.0000
  K   K20       1.0  0.11000  0.55900  0.93300  1.0000
  K   K21       1.0  0.11000  0.94100  0.43300  1.0000
  K   K22       1.0  0.39000  0.05870  0.93300  1.0000
  K   K23       1.0  0.61000  0.55900  0.56700  1.0000
  K   K24       1.0  0.89000  0.44100  0.06680  1.0000
  K   K25       1.0  0.68500  0.63000  0.91700  1.0000
  K   K26       1.0  0.81500  0.37000  0.41700  1.0000
  K   K27       1.0  0.18500  0.87000  0.08330  1.0000
  K   K28       1.0  0.31500  0.13000  0.58300  1.0000
  K   K29       1.0  0.31500  0.37000  0.08330  1.0000
  K   K30       1.0  0.18500  0.63000  0.58300  1.0000
  K   K31       1.0  0.81500  0.13000  0.91700  1.0000
  K   K32       1.0  0.68500  0.87000  0.41700  1.0000
  Li  Li1       1.0  0.49000  0.19900  0.75200  1.0000
  Li  Li2       1.0  0.00984  0.80100  0.25200  1.0000
  Li  Li3       1.0  0.99000  0.30100  0.24800  1.0000
  Li  Li4       1.0  0.51000  0.69900  0.74800  1.0000
  Li  Li5       1.0  0.51000  0.80100  0.24800  1.0000
  Li  Li6       1.0  0.99000  0.19900  0.74800  1.0000
  Li  Li7       1.0  0.00984  0.69900  0.75200  1.0000
  Li  Li8       1.0  0.49000  0.30100  0.25200  1.0000
  O   O1        1.0  0.51300  0.85100  0.86400  1.0000
  O   O2        1.0  0.98700  0.14900  0.36400  1.0000
  O   O3        1.0  0.01290  0.64900  0.13600  1.0000
  O   O4        1.0  0.48700  0.35100  0.63600  1.0000
  O   O5        1.0  0.48700  0.14900  0.13600  1.0000
  O   O6        1.0  0.01290  0.85100  0.63600  1.0000
  O   O7        1.0  0.98700  0.35100  0.86400  1.0000
  O   O8        1.0  0.51300  0.64900  0.36400  1.0000
  O   O9        1.0  0.48800  0.02730  0.67400  1.0000
  O   O10       1.0  0.01150  0.97300  0.17400  1.0000
  O   O11       1.0  0.98800  0.47300  0.32600  1.0000
  O   O12       1.0  0.51200  0.52700  0.82600  1.0000
  O   O13       1.0  0.51200  0.97300  0.32600  1.0000
  O   O14       1.0  0.98800  0.02730  0.82600  1.0000
  O   O15       1.0  0.01150  0.52700  0.67400  1.0000
  O   O16       1.0  0.48800  0.47300  0.17400  1.0000
  O   O17       1.0  0.70200  0.03500  0.64700  1.0000
  O   O18       1.0  0.79800  0.96500  0.14700  1.0000
  O   O19       1.0  0.20200  0.46500  0.35300  1.0000
  O   O20       1.0  0.29800  0.53500  0.85300  1.0000
  O   O21       1.0  0.29800  0.96500  0.35300  1.0000
  O   O22       1.0  0.20200  0.03500  0.85300  1.0000
  O   O23       1.0  0.79800  0.53500  0.64700  1.0000
  O   O24       1.0  0.70200  0.46500  0.14700  1.0000
  O   O25       1.0  0.61000  0.79800  0.65500  1.0000
  O   O26       1.0  0.89000  0.20200  0.15500  1.0000
  O   O27       1.0  0.11000  0.70200  0.34500  1.0000
  O   O28       1.0  0.39000  0.29800  0.84500  1.0000
  O   O29       1.0  0.39000  0.20200  0.34500  1.0000
  O   O30       1.0  0.11000  0.79800  0.84500  1.0000
  O   O31       1.0  0.89000  0.29800  0.65500  1.0000
  O   O32       1.0  0.61000  0.70200  0.15500  1.0000
  O   O33       1.0  0.60000  0.11500  0.86000  1.0000
  O   O34       1.0  0.90000  0.88500  0.36000  1.0000
  O   O35       1.0  0.09980  0.38500  0.14000  1.0000
  O   O36       1.0  0.40000  0.61500  0.64000  1.0000
  O   O37       1.0  0.40000  0.88500  0.14000  1.0000
  O   O38       1.0  0.09980  0.11500  0.64000  1.0000
  O   O39       1.0  0.90000  0.61500  0.86000  1.0000
  O   O40       1.0  0.60000  0.38500  0.36000  1.0000
  O   O41       1.0  0.28000  0.10800  0.13700  1.0000
  O   O42       1.0  0.22000  0.89200  0.63700  1.0000
  O   O43       1.0  0.78000  0.39200  0.86300  1.0000
  O   O44       1.0  0.72000  0.60800  0.36300  1.0000
  O   O45       1.0  0.72000  0.89200  0.86300  1.0000
  O   O46       1.0  0.78000  0.10800  0.36300  1.0000
  O   O47       1.0  0.22000  0.60800  0.13700  1.0000
  O   O48       1.0  0.28000  0.39200  0.63700  1.0000
