data_image0
_chemical_formula_structural       Cu8O16W4
_chemical_formula_sum              "Cu8 O16 W4"
_cell_length_a       7.97126
_cell_length_b       8.52428
_cell_length_c       5.33426
_cell_angle_alpha    98.6276
_cell_angle_beta     95.8579
_cell_angle_gamma    119.125

_space_group_name_H-M_alt    "P 1"
_space_group_IT_number       1

loop_
  _space_group_symop_operation_xyz
  'x, y, z'

loop_
  _atom_site_type_symbol
  _atom_site_label
  _atom_site_symmetry_multiplicity
  _atom_site_fract_x
  _atom_site_fract_y
  _atom_site_fract_z
  _atom_site_occupancy
  Cu  Cu1       1.0  0.72400  0.28200  0.45800  1.0000
  Cu  Cu2       1.0  0.27600  0.71800  0.54200  1.0000
  Cu  Cu3       1.0  0.19200  0.58600  0.05770  1.0000
  Cu  Cu4       1.0  0.80800  0.41400  0.94200  1.0000
  Cu  Cu5       1.0  0.49300  0.08000  0.78100  1.0000
  Cu  Cu6       1.0  0.50700  0.92000  0.21900  1.0000
  Cu  Cu7       1.0  0.06190  0.37000  0.34700  1.0000
  Cu  Cu8       1.0  0.93800  0.63000  0.65300  1.0000
  O   O1        1.0  0.17300  0.76800  0.91000  1.0000
  O   O2        1.0  0.82700  0.23200  0.09030  1.0000
  O   O3        1.0  0.33800  0.21100  0.46900  1.0000
  O   O4        1.0  0.66200  0.78900  0.53100  1.0000
  O   O5        1.0  0.30400  0.91300  0.39200  1.0000
  O   O6        1.0  0.69600  0.08660  0.60800  1.0000
  O   O7        1.0  0.06800  0.21800  0.76600  1.0000
  O   O8        1.0  0.93200  0.78200  0.23400  1.0000
  O   O9        1.0  0.97200  0.89500  0.80700  1.0000
  O   O10       1.0  0.02800  0.10500  0.19300  1.0000
  O   O11       1.0  0.34600  0.15500  0.96800  1.0000
  O   O12       1.0  0.65400  0.84500  0.03230  1.0000
  O   O13       1.0  0.70500  0.48300  0.38700  1.0000
  O   O14       1.0  0.29500  0.51700  0.61300  1.0000
  O   O15       1.0  0.38100  0.50700  0.12500  1.0000
  O   O16       1.0  0.61900  0.49300  0.87500  1.0000
  W   W1        1.0  0.17300  0.98300  0.14200  1.0000
  W   W2        1.0  0.82700  0.01730  0.85800  1.0000
  W   W3        1.0  0.33200  0.34900  0.75800  1.0000
  W   W4        1.0  0.66800  0.65100  0.24200  1.0000
