data_image0
_chemical_formula_structural       Ca2Co2O14P4
_chemical_formula_sum              "Ca2 Co2 O14 P4"
_cell_length_a       6.35332
_cell_length_b       6.27745
_cell_length_c       6.39197
_cell_angle_alpha    66.2388
_cell_angle_beta     83.815
_cell_angle_gamma    88.023

_space_group_name_H-M_alt    "P 1"
_space_group_IT_number       1

loop_
  _space_group_symop_operation_xyz
  'x, y, z'

loop_
  _atom_site_type_symbol
  _atom_site_label
  _atom_site_symmetry_multiplicity
  _atom_site_fract_x
  _atom_site_fract_y
  _atom_site_fract_z
  _atom_site_occupancy
  Ca  Ca1       1.0  0.12000  0.78600  0.74700  1.0000
  Ca  Ca2       1.0  0.88000  0.21400  0.25300  1.0000
  Co  Co1       1.0  0.35500  0.22200  0.90200  1.0000
  Co  Co2       1.0  0.64500  0.77800  0.09840  1.0000
  O   O1        1.0  0.76000  0.49000  0.58400  1.0000
  O   O2        1.0  0.24000  0.51000  0.41600  1.0000
  O   O3        1.0  0.96800  0.65500  0.12900  1.0000
  O   O4        1.0  0.03210  0.34500  0.87100  1.0000
  O   O5        1.0  0.58700  0.43200  0.24200  1.0000
  O   O6        1.0  0.41300  0.56800  0.75800  1.0000
  O   O7        1.0  0.39700  0.13200  0.61300  1.0000
  O   O8        1.0  0.60300  0.86800  0.38700  1.0000
  O   O9        1.0  0.73900  0.76000  0.78600  1.0000
  O   O10       1.0  0.26100  0.24000  0.21400  1.0000
  O   O11       1.0  0.31100  0.86400  0.04940  1.0000
  O   O12       1.0  0.68900  0.13600  0.95100  1.0000
  O   O13       1.0  0.04360  0.85800  0.38500  1.0000
  O   O14       1.0  0.95600  0.14200  0.61500  1.0000
  P   P1        1.0  0.13400  0.73200  0.24100  1.0000
  P   P2        1.0  0.86600  0.26800  0.75900  1.0000
  P   P3        1.0  0.62100  0.69000  0.63100  1.0000
  P   P4        1.0  0.37900  0.31000  0.36900  1.0000
