data_image0
_chemical_formula_structural       Mn3O18Sb6
_chemical_formula_sum              "Mn3 O18 Sb6"
_cell_length_a       8.83274
_cell_length_b       8.82318
_cell_length_c       4.61688
_cell_angle_alpha    89.9847
_cell_angle_beta     90
_cell_angle_gamma    120.036

_space_group_name_H-M_alt    "P 1"
_space_group_IT_number       1

loop_
  _space_group_symop_operation_xyz
  'x, y, z'

loop_
  _atom_site_type_symbol
  _atom_site_label
  _atom_site_symmetry_multiplicity
  _atom_site_fract_x
  _atom_site_fract_y
  _atom_site_fract_z
  _atom_site_occupancy
  Mn  Mn1       1.0  0.63300  0.00000  0.00000  1.0000
  Mn  Mn2       1.0  0.00087  0.63600  0.99900  1.0000
  Mn  Mn3       1.0  0.36500  0.36400  0.00088  1.0000
  O   O1        1.0  0.22600  0.78100  0.27000  1.0000
  O   O2        1.0  0.22100  0.44600  0.26900  1.0000
  O   O3        1.0  0.55600  0.77500  0.27000  1.0000
  O   O4        1.0  0.44600  0.21900  0.73000  1.0000
  O   O5        1.0  0.77500  0.55400  0.73100  1.0000
  O   O6        1.0  0.78100  0.22500  0.73000  1.0000
  O   O7        1.0  0.47000  0.58800  0.73500  1.0000
  O   O8        1.0  0.41200  0.88300  0.73500  1.0000
  O   O9        1.0  0.11900  0.53200  0.73300  1.0000
  O   O10       1.0  0.88300  0.41200  0.26500  1.0000
  O   O11       1.0  0.52900  0.11700  0.26500  1.0000
  O   O12       1.0  0.58800  0.46800  0.26700  1.0000
  O   O13       1.0  0.10000  0.88700  0.76000  1.0000
  O   O14       1.0  0.11300  0.21500  0.76100  1.0000
  O   O15       1.0  0.78400  0.89800  0.75900  1.0000
  O   O16       1.0  0.21300  0.11300  0.24000  1.0000
  O   O17       1.0  0.89800  0.78500  0.23900  1.0000
  O   O18       1.0  0.88500  0.10200  0.24100  1.0000
  Sb  Sb1       1.0  0.33600  0.66800  0.50100  1.0000
  Sb  Sb2       1.0  0.66800  0.33200  0.49900  1.0000
  Sb  Sb3       1.0  0.30600  0.00000  0.50000  1.0000
  Sb  Sb4       1.0  0.00165  0.30800  0.50000  1.0000
  Sb  Sb5       1.0  0.69400  0.69200  0.50000  1.0000
  Sb  Sb6       1.0  0.99700  0.00000  0.00000  1.0000
