data_image0
_chemical_formula_structural       Li85Sn20
_chemical_formula_sum              "Li85 Sn20"
_cell_length_a       13.3822
_cell_length_b       13.3822
_cell_length_c       13.3822
_cell_angle_alpha    60
_cell_angle_beta     60
_cell_angle_gamma    60

_space_group_name_H-M_alt    "P 1"
_space_group_IT_number       1

loop_
  _space_group_symop_operation_xyz
  'x, y, z'

loop_
  _atom_site_type_symbol
  _atom_site_label
  _atom_site_symmetry_multiplicity
  _atom_site_fract_x
  _atom_site_fract_y
  _atom_site_fract_z
  _atom_site_occupancy
  Li  Li1       1.0  0.73300  0.45400  0.73300  1.0000
  Li  Li2       1.0  0.45400  0.73300  0.07950  1.0000
  Li  Li3       1.0  0.07950  0.73300  0.45400  1.0000
  Li  Li4       1.0  0.73300  0.07950  0.73300  1.0000
  Li  Li5       1.0  0.73300  0.73300  0.45400  1.0000
  Li  Li6       1.0  0.45400  0.73300  0.73300  1.0000
  Li  Li7       1.0  0.73300  0.73300  0.07950  1.0000
  Li  Li8       1.0  0.73300  0.07950  0.45400  1.0000
  Li  Li9       1.0  0.07950  0.45400  0.73300  1.0000
  Li  Li10      1.0  0.73300  0.45400  0.07950  1.0000
  Li  Li11      1.0  0.45400  0.07950  0.73300  1.0000
  Li  Li12      1.0  0.07950  0.73300  0.73300  1.0000
  Li  Li13      1.0  0.57700  0.57700  0.92300  1.0000
  Li  Li14      1.0  0.92300  0.92300  0.57700  1.0000
  Li  Li15      1.0  0.92300  0.57700  0.57700  1.0000
  Li  Li16      1.0  0.57700  0.92300  0.57700  1.0000
  Li  Li17      1.0  0.57700  0.92300  0.92300  1.0000
  Li  Li18      1.0  0.92300  0.57700  0.92300  1.0000
  Li  Li19      1.0  0.58400  0.24900  0.58400  1.0000
  Li  Li20      1.0  0.24900  0.58400  0.58400  1.0000
  Li  Li21      1.0  0.58400  0.58400  0.24900  1.0000
  Li  Li22      1.0  0.58400  0.58400  0.58400  1.0000
  Li  Li23      1.0  0.17400  0.47900  0.17400  1.0000
  Li  Li24      1.0  0.47900  0.17400  0.17400  1.0000
  Li  Li25      1.0  0.17400  0.17400  0.47900  1.0000
  Li  Li26      1.0  0.17400  0.17400  0.17400  1.0000
  Li  Li27      1.0  0.92600  0.22300  0.92600  1.0000
  Li  Li28      1.0  0.22300  0.92600  0.92600  1.0000
  Li  Li29      1.0  0.92600  0.92600  0.22300  1.0000
  Li  Li30      1.0  0.92600  0.92600  0.92600  1.0000
  Li  Li31      1.0  0.66700  0.44400  0.44400  1.0000
  Li  Li32      1.0  0.44400  0.66700  0.44400  1.0000
  Li  Li33      1.0  0.44400  0.44400  0.44400  1.0000
  Li  Li34      1.0  0.44400  0.44400  0.66700  1.0000
  Li  Li35      1.0  0.99100  0.68200  0.99100  1.0000
  Li  Li36      1.0  0.68200  0.99100  0.33500  1.0000
  Li  Li37      1.0  0.33500  0.99100  0.68200  1.0000
  Li  Li38      1.0  0.99100  0.33500  0.99100  1.0000
  Li  Li39      1.0  0.99100  0.99100  0.68200  1.0000
  Li  Li40      1.0  0.68200  0.99100  0.99100  1.0000
  Li  Li41      1.0  0.99100  0.99100  0.33500  1.0000
  Li  Li42      1.0  0.99100  0.33500  0.68200  1.0000
  Li  Li43      1.0  0.33500  0.68200  0.99100  1.0000
  Li  Li44      1.0  0.99100  0.68200  0.33500  1.0000
  Li  Li45      1.0  0.68200  0.33500  0.99100  1.0000
  Li  Li46      1.0  0.33500  0.99100  0.99100  1.0000
  Li  Li47      1.0  0.94300  0.23900  0.58000  1.0000
  Li  Li48      1.0  0.23900  0.94300  0.23900  1.0000
  Li  Li49      1.0  0.23900  0.58000  0.23900  1.0000
  Li  Li50      1.0  0.58000  0.23900  0.94300  1.0000
  Li  Li51      1.0  0.58000  0.94300  0.23900  1.0000
  Li  Li52      1.0  0.23900  0.58000  0.94300  1.0000
  Li  Li53      1.0  0.94300  0.58000  0.23900  1.0000
  Li  Li54      1.0  0.94300  0.23900  0.23900  1.0000
  Li  Li55      1.0  0.23900  0.23900  0.94300  1.0000
  Li  Li56      1.0  0.58000  0.23900  0.23900  1.0000
  Li  Li57      1.0  0.23900  0.23900  0.58000  1.0000
  Li  Li58      1.0  0.23900  0.94300  0.58000  1.0000
  Li  Li59      1.0  0.17200  0.82800  0.82800  1.0000
  Li  Li60      1.0  0.82800  0.17200  0.17200  1.0000
  Li  Li61      1.0  0.82800  0.17200  0.82800  1.0000
  Li  Li62      1.0  0.82800  0.82800  0.17200  1.0000
  Li  Li63      1.0  0.17200  0.82800  0.17200  1.0000
  Li  Li64      1.0  0.17200  0.17200  0.82800  1.0000
  Li  Li65      1.0  0.04330  0.31900  0.31900  1.0000
  Li  Li66      1.0  0.31900  0.04330  0.31900  1.0000
  Li  Li67      1.0  0.31900  0.31900  0.31900  1.0000
  Li  Li68      1.0  0.31900  0.31900  0.04330  1.0000
  Li  Li69      1.0  0.48200  0.48200  0.82500  1.0000
  Li  Li70      1.0  0.48200  0.48200  0.21100  1.0000
  Li  Li71      1.0  0.21100  0.82500  0.48200  1.0000
  Li  Li72      1.0  0.82500  0.21100  0.48200  1.0000
  Li  Li73      1.0  0.82500  0.48200  0.48200  1.0000
  Li  Li74      1.0  0.48200  0.82500  0.48200  1.0000
  Li  Li75      1.0  0.48200  0.82500  0.21100  1.0000
  Li  Li76      1.0  0.48200  0.21100  0.48200  1.0000
  Li  Li77      1.0  0.21100  0.48200  0.48200  1.0000
  Li  Li78      1.0  0.82500  0.48200  0.21100  1.0000
  Li  Li79      1.0  0.48200  0.21100  0.82500  1.0000
  Li  Li80      1.0  0.21100  0.48200  0.82500  1.0000
  Li  Li81      1.0  0.00000  0.00000  0.00000  1.0000
  Li  Li82      1.0  0.69600  0.69600  0.69600  1.0000
  Li  Li83      1.0  0.69600  0.69600  0.91100  1.0000
  Li  Li84      1.0  0.91100  0.69600  0.69600  1.0000
  Li  Li85      1.0  0.69600  0.91100  0.69600  1.0000
  Sn  Sn1       1.0  0.84000  0.47900  0.84000  1.0000
  Sn  Sn2       1.0  0.47900  0.84000  0.84000  1.0000
  Sn  Sn3       1.0  0.84000  0.84000  0.47900  1.0000
  Sn  Sn4       1.0  0.84000  0.84000  0.84000  1.0000
  Sn  Sn5       1.0  0.08440  0.74700  0.08440  1.0000
  Sn  Sn6       1.0  0.74700  0.08440  0.08440  1.0000
  Sn  Sn7       1.0  0.08440  0.08440  0.74700  1.0000
  Sn  Sn8       1.0  0.08440  0.08440  0.08440  1.0000
  Sn  Sn9       1.0  0.68000  0.32000  0.68000  1.0000
  Sn  Sn10      1.0  0.32000  0.68000  0.32000  1.0000
  Sn  Sn11      1.0  0.68000  0.68000  0.32000  1.0000
  Sn  Sn12      1.0  0.32000  0.68000  0.68000  1.0000
  Sn  Sn13      1.0  0.68000  0.32000  0.32000  1.0000
  Sn  Sn14      1.0  0.32000  0.32000  0.68000  1.0000
  Sn  Sn15      1.0  0.43000  0.43000  0.07020  1.0000
  Sn  Sn16      1.0  0.07020  0.07020  0.43000  1.0000
  Sn  Sn17      1.0  0.07020  0.43000  0.43000  1.0000
  Sn  Sn18      1.0  0.43000  0.07020  0.43000  1.0000
  Sn  Sn19      1.0  0.43000  0.07020  0.07020  1.0000
  Sn  Sn20      1.0  0.07020  0.43000  0.07020  1.0000
