data_image0
_chemical_formula_structural       In21Pd10Th4
_chemical_formula_sum              "In21 Pd10 Th4"
_cell_length_a       11.726
_cell_length_b       11.726
_cell_length_c       17.3113
_cell_angle_alpha    56.1525
_cell_angle_beta     123.847
_cell_angle_gamma    157.897

_space_group_name_H-M_alt    "P 1"
_space_group_IT_number       1

loop_
  _space_group_symop_operation_xyz
  'x, y, z'

loop_
  _atom_site_type_symbol
  _atom_site_label
  _atom_site_symmetry_multiplicity
  _atom_site_fract_x
  _atom_site_fract_y
  _atom_site_fract_z
  _atom_site_occupancy
  In  In1       1.0  0.40100  0.59900  0.00618  1.0000
  In  In2       1.0  0.61500  0.38500  0.70200  1.0000
  In  In3       1.0  0.38500  0.61500  0.29800  1.0000
  In  In4       1.0  0.59900  0.40100  0.99400  1.0000
  In  In5       1.0  0.54300  0.45700  0.37000  1.0000
  In  In6       1.0  0.45700  0.54300  0.63000  1.0000
  In  In7       1.0  0.01070  0.98900  0.09190  1.0000
  In  In8       1.0  0.98900  0.01070  0.90800  1.0000
  In  In9       1.0  0.19900  0.80100  0.00234  1.0000
  In  In10      1.0  0.80100  0.19900  0.99800  1.0000
  In  In11      1.0  0.25300  0.74700  0.29500  1.0000
  In  In12      1.0  0.74700  0.25300  0.70500  1.0000
  In  In13      1.0  0.06270  0.93700  0.79500  1.0000
  In  In14      1.0  0.93700  0.06270  0.20500  1.0000
  In  In15      1.0  0.11700  0.88300  0.55300  1.0000
  In  In16      1.0  0.88300  0.11700  0.44700  1.0000
  In  In17      1.0  0.30000  0.70000  0.49900  1.0000
  In  In18      1.0  0.70000  0.30000  0.50100  1.0000
  In  In19      1.0  0.63100  0.36900  0.19600  1.0000
  In  In20      1.0  0.36900  0.63100  0.80400  1.0000
  In  In21      1.0  0.50000  0.50000  0.50000  1.0000
  Pd  Pd1       1.0  0.50900  0.49100  0.19100  1.0000
  Pd  Pd2       1.0  0.49100  0.50900  0.80900  1.0000
  Pd  Pd3       1.0  0.34500  0.65500  0.11400  1.0000
  Pd  Pd4       1.0  0.65500  0.34500  0.88600  1.0000
  Pd  Pd5       1.0  0.25300  0.74700  0.61700  1.0000
  Pd  Pd6       1.0  0.74700  0.25300  0.38300  1.0000
  Pd  Pd7       1.0  0.14000  0.86000  0.10700  1.0000
  Pd  Pd8       1.0  0.86000  0.14000  0.89300  1.0000
  Pd  Pd9       1.0  0.02390  0.97600  0.61000  1.0000
  Pd  Pd10      1.0  0.97600  0.02390  0.39000  1.0000
  Th  Th1       1.0  0.12200  0.87800  0.33000  1.0000
  Th  Th2       1.0  0.87800  0.12200  0.67000  1.0000
  Th  Th3       1.0  0.77000  0.23000  0.17100  1.0000
  Th  Th4       1.0  0.23000  0.77000  0.82900  1.0000
