data_image0
_chemical_formula_structural       Co4Zn10
_chemical_formula_sum              "Co4 Zn10"
_cell_length_a       4.69121
_cell_length_b       4.69121
_cell_length_c       10.3707
_cell_angle_alpha    92.3439
_cell_angle_beta     87.6561
_cell_angle_gamma    121.744

_space_group_name_H-M_alt    "P 1"
_space_group_IT_number       1

loop_
  _space_group_symop_operation_xyz
  'x, y, z'

loop_
  _atom_site_type_symbol
  _atom_site_label
  _atom_site_symmetry_multiplicity
  _atom_site_fract_x
  _atom_site_fract_y
  _atom_site_fract_z
  _atom_site_occupancy
  Co  Co1       1.0  0.05720  0.43400  0.29900  1.0000
  Co  Co2       1.0  0.43400  0.05720  0.70100  1.0000
  Co  Co3       1.0  0.94300  0.56600  0.70100  1.0000
  Co  Co4       1.0  0.56600  0.94300  0.29900  1.0000
  Zn  Zn1       1.0  0.16700  0.83300  0.48500  1.0000
  Zn  Zn2       1.0  0.83300  0.16700  0.51500  1.0000
  Zn  Zn3       1.0  0.57600  0.42400  0.89400  1.0000
  Zn  Zn4       1.0  0.42400  0.57600  0.10600  1.0000
  Zn  Zn5       1.0  0.75300  0.24700  0.09110  1.0000
  Zn  Zn6       1.0  0.24700  0.75300  0.90900  1.0000
  Zn  Zn7       1.0  0.55300  0.44700  0.37000  1.0000
  Zn  Zn8       1.0  0.44700  0.55300  0.63000  1.0000
  Zn  Zn9       1.0  0.07000  0.93000  0.21000  1.0000
  Zn  Zn10      1.0  0.93000  0.07000  0.79000  1.0000
