data_image0
_chemical_formula_structural       Eu10Ga18
_chemical_formula_sum              "Eu10 Ga18"
_cell_length_a       5.77729
_cell_length_b       5.77729
_cell_length_c       25.4771
_cell_angle_alpha    90
_cell_angle_beta     90
_cell_angle_gamma    46.125

_space_group_name_H-M_alt    "P 1"
_space_group_IT_number       1

loop_
  _space_group_symop_operation_xyz
  'x, y, z'

loop_
  _atom_site_type_symbol
  _atom_site_label
  _atom_site_symmetry_multiplicity
  _atom_site_fract_x
  _atom_site_fract_y
  _atom_site_fract_z
  _atom_site_occupancy
  Eu  Eu1       1.0  0.65000  0.65000  0.45800  1.0000
  Eu  Eu2       1.0  0.35000  0.35000  0.95800  1.0000
  Eu  Eu3       1.0  0.35000  0.35000  0.54200  1.0000
  Eu  Eu4       1.0  0.65000  0.65000  0.04180  1.0000
  Eu  Eu5       1.0  0.12600  0.12600  0.25000  1.0000
  Eu  Eu6       1.0  0.87400  0.87400  0.75000  1.0000
  Eu  Eu7       1.0  0.15500  0.15500  0.66700  1.0000
  Eu  Eu8       1.0  0.84500  0.84500  0.16700  1.0000
  Eu  Eu9       1.0  0.84500  0.84500  0.33300  1.0000
  Eu  Eu10      1.0  0.15500  0.15500  0.83300  1.0000
  Ga  Ga1       1.0  0.58000  0.58000  0.75000  1.0000
  Ga  Ga2       1.0  0.42000  0.42000  0.25000  1.0000
  Ga  Ga3       1.0  0.63700  0.63700  0.58400  1.0000
  Ga  Ga4       1.0  0.36300  0.36300  0.08390  1.0000
  Ga  Ga5       1.0  0.36300  0.36300  0.41600  1.0000
  Ga  Ga6       1.0  0.63700  0.63700  0.91600  1.0000
  Ga  Ga7       1.0  0.13400  0.13400  0.37700  1.0000
  Ga  Ga8       1.0  0.86600  0.86600  0.87700  1.0000
  Ga  Ga9       1.0  0.86600  0.86600  0.62300  1.0000
  Ga  Ga10      1.0  0.13400  0.13400  0.12300  1.0000
  Ga  Ga11      1.0  0.04750  0.04750  0.54700  1.0000
  Ga  Ga12      1.0  0.95200  0.95200  0.04690  1.0000
  Ga  Ga13      1.0  0.95200  0.95200  0.45300  1.0000
  Ga  Ga14      1.0  0.04750  0.04750  0.95300  1.0000
  Ga  Ga15      1.0  0.54500  0.54500  0.33900  1.0000
  Ga  Ga16      1.0  0.45500  0.45500  0.83900  1.0000
  Ga  Ga17      1.0  0.45500  0.45500  0.66100  1.0000
  Ga  Ga18      1.0  0.54500  0.54500  0.16100  1.0000
