data_image0
_chemical_formula_structural       Be8F28H16Li8N4
_chemical_formula_sum              "Be8 F28 H16 Li8 N4"
_cell_length_a       9.31724
_cell_length_b       11.1398
_cell_length_c       4.46823
_cell_angle_alpha    90
_cell_angle_beta     90
_cell_angle_gamma    90

_space_group_name_H-M_alt    "P 1"
_space_group_IT_number       1

loop_
  _space_group_symop_operation_xyz
  'x, y, z'

loop_
  _atom_site_type_symbol
  _atom_site_label
  _atom_site_symmetry_multiplicity
  _atom_site_fract_x
  _atom_site_fract_y
  _atom_site_fract_z
  _atom_site_occupancy
  Be  Be1       1.0  0.92100  0.13200  0.64100  1.0000
  Be  Be2       1.0  0.57900  0.86800  0.14100  1.0000
  Be  Be3       1.0  0.42100  0.36800  0.85900  1.0000
  Be  Be4       1.0  0.07920  0.63200  0.35900  1.0000
  Be  Be5       1.0  0.07920  0.86800  0.35900  1.0000
  Be  Be6       1.0  0.42100  0.13200  0.85900  1.0000
  Be  Be7       1.0  0.57900  0.63200  0.14100  1.0000
  Be  Be8       1.0  0.92100  0.36800  0.64100  1.0000
  F   F1        1.0  0.07450  0.13200  0.74600  1.0000
  F   F2        1.0  0.42500  0.86800  0.24600  1.0000
  F   F3        1.0  0.57500  0.36800  0.75400  1.0000
  F   F4        1.0  0.92500  0.63200  0.25400  1.0000
  F   F5        1.0  0.92500  0.86800  0.25400  1.0000
  F   F6        1.0  0.57500  0.13200  0.75400  1.0000
  F   F7        1.0  0.42500  0.63200  0.24600  1.0000
  F   F8        1.0  0.07450  0.36800  0.74600  1.0000
  F   F9        1.0  0.84200  0.01780  0.74500  1.0000
  F   F10       1.0  0.65800  0.98200  0.24500  1.0000
  F   F11       1.0  0.34200  0.48200  0.75500  1.0000
  F   F12       1.0  0.15800  0.51800  0.25500  1.0000
  F   F13       1.0  0.15800  0.98200  0.25500  1.0000
  F   F14       1.0  0.34200  0.01780  0.75500  1.0000
  F   F15       1.0  0.65800  0.51800  0.24500  1.0000
  F   F16       1.0  0.84200  0.48200  0.74500  1.0000
  F   F17       1.0  0.91600  0.13200  0.30000  1.0000
  F   F18       1.0  0.58400  0.86800  0.80000  1.0000
  F   F19       1.0  0.41600  0.36800  0.20000  1.0000
  F   F20       1.0  0.08420  0.63200  0.70000  1.0000
  F   F21       1.0  0.08420  0.86800  0.70000  1.0000
  F   F22       1.0  0.41600  0.13200  0.20000  1.0000
  F   F23       1.0  0.58400  0.63200  0.80000  1.0000
  F   F24       1.0  0.91600  0.36800  0.30000  1.0000
  F   F25       1.0  0.84600  0.25000  0.75800  1.0000
  F   F26       1.0  0.65400  0.75000  0.25800  1.0000
  F   F27       1.0  0.34600  0.25000  0.74200  1.0000
  F   F28       1.0  0.15400  0.75000  0.24200  1.0000
  H   H1        1.0  0.12100  0.17600  0.33700  1.0000
  H   H2        1.0  0.37900  0.82400  0.83700  1.0000
  H   H3        1.0  0.62100  0.32400  0.16300  1.0000
  H   H4        1.0  0.87900  0.67600  0.66300  1.0000
  H   H5        1.0  0.87900  0.82400  0.66300  1.0000
  H   H6        1.0  0.62100  0.17600  0.16300  1.0000
  H   H7        1.0  0.37900  0.67600  0.83700  1.0000
  H   H8        1.0  0.12100  0.32400  0.33700  1.0000
  H   H9        1.0  0.27600  0.25000  0.28100  1.0000
  H   H10       1.0  0.22400  0.75000  0.78100  1.0000
  H   H11       1.0  0.77600  0.25000  0.21900  1.0000
  H   H12       1.0  0.72400  0.75000  0.71900  1.0000
  H   H13       1.0  0.14500  0.25000  0.01610  1.0000
  H   H14       1.0  0.35500  0.75000  0.51600  1.0000
  H   H15       1.0  0.64500  0.25000  0.48400  1.0000
  H   H16       1.0  0.85500  0.75000  0.98400  1.0000
  Li  Li1       1.0  0.15700  0.99900  0.85900  1.0000
  Li  Li2       1.0  0.34300  0.00136  0.35900  1.0000
  Li  Li3       1.0  0.65700  0.50100  0.64100  1.0000
  Li  Li4       1.0  0.84300  0.49900  0.14100  1.0000
  Li  Li5       1.0  0.84300  0.00136  0.14100  1.0000
  Li  Li6       1.0  0.65700  0.99900  0.64100  1.0000
  Li  Li7       1.0  0.34300  0.49900  0.35900  1.0000
  Li  Li8       1.0  0.15700  0.50100  0.85900  1.0000
  N   N1        1.0  0.16700  0.25000  0.24200  1.0000
  N   N2        1.0  0.33300  0.75000  0.74200  1.0000
  N   N3        1.0  0.66700  0.25000  0.25800  1.0000
  N   N4        1.0  0.83300  0.75000  0.75800  1.0000
