data_image0
_chemical_formula_structural       Cl2Ni7O18Te6
_chemical_formula_sum              "Cl2 Ni7 O18 Te6"
_cell_length_a       7.71112
_cell_length_b       7.71055
_cell_length_c       7.71023
_cell_angle_alpha    89.4468
_cell_angle_beta     89.4386
_cell_angle_gamma    89.446

_space_group_name_H-M_alt    "P 1"
_space_group_IT_number       1

loop_
  _space_group_symop_operation_xyz
  'x, y, z'

loop_
  _atom_site_type_symbol
  _atom_site_label
  _atom_site_symmetry_multiplicity
  _atom_site_fract_x
  _atom_site_fract_y
  _atom_site_fract_z
  _atom_site_occupancy
  Cl  Cl1       1.0  0.20100  0.20100  0.20100  1.0000
  Cl  Cl2       1.0  0.79900  0.79900  0.79900  1.0000
  Ni  Ni1       1.0  0.50000  0.50000  0.50000  1.0000
  Ni  Ni2       1.0  0.46100  0.37900  0.13100  1.0000
  Ni  Ni3       1.0  0.13100  0.46100  0.37900  1.0000
  Ni  Ni4       1.0  0.37900  0.13100  0.46100  1.0000
  Ni  Ni5       1.0  0.53900  0.62100  0.86900  1.0000
  Ni  Ni6       1.0  0.86900  0.53900  0.62100  1.0000
  Ni  Ni7       1.0  0.62100  0.86900  0.53900  1.0000
  O   O1        1.0  0.46700  0.91900  0.33400  1.0000
  O   O2        1.0  0.33400  0.46700  0.91900  1.0000
  O   O3        1.0  0.91900  0.33400  0.46700  1.0000
  O   O4        1.0  0.53300  0.08100  0.66600  1.0000
  O   O5        1.0  0.66600  0.53300  0.08100  1.0000
  O   O6        1.0  0.08080  0.66600  0.53300  1.0000
  O   O7        1.0  0.41300  0.81000  0.99600  1.0000
  O   O8        1.0  0.99600  0.41300  0.81000  1.0000
  O   O9        1.0  0.81000  0.99600  0.41300  1.0000
  O   O10       1.0  0.58800  0.19000  0.00448  1.0000
  O   O11       1.0  0.00444  0.58700  0.19000  1.0000
  O   O12       1.0  0.19000  0.00430  0.58700  1.0000
  O   O13       1.0  0.35400  0.56900  0.28700  1.0000
  O   O14       1.0  0.28700  0.35400  0.56900  1.0000
  O   O15       1.0  0.56900  0.28700  0.35400  1.0000
  O   O16       1.0  0.64600  0.43100  0.71300  1.0000
  O   O17       1.0  0.71300  0.64600  0.43100  1.0000
  O   O18       1.0  0.43100  0.71300  0.64600  1.0000
  Te  Te1       1.0  0.29200  0.80300  0.20700  1.0000
  Te  Te2       1.0  0.20700  0.29200  0.80300  1.0000
  Te  Te3       1.0  0.80300  0.20700  0.29300  1.0000
  Te  Te4       1.0  0.70800  0.19700  0.79300  1.0000
  Te  Te5       1.0  0.79300  0.70800  0.19700  1.0000
  Te  Te6       1.0  0.19700  0.79300  0.70700  1.0000
