data_image0
_chemical_formula_structural       Ba11Bi14Cd8
_chemical_formula_sum              "Ba11 Bi14 Cd8"
_cell_length_a       14.494
_cell_length_b       14.494
_cell_length_c       16.8022
_cell_angle_alpha    88.6632
_cell_angle_beta     91.3368
_cell_angle_gamma    160.435

_space_group_name_H-M_alt    "P 1"
_space_group_IT_number       1

loop_
  _space_group_symop_operation_xyz
  'x, y, z'

loop_
  _atom_site_type_symbol
  _atom_site_label
  _atom_site_symmetry_multiplicity
  _atom_site_fract_x
  _atom_site_fract_y
  _atom_site_fract_z
  _atom_site_occupancy
  Ba  Ba1       1.0  0.25400  0.74600  0.29500  1.0000
  Ba  Ba2       1.0  0.74600  0.25400  0.70500  1.0000
  Ba  Ba3       1.0  0.00967  0.99000  0.36600  1.0000
  Ba  Ba4       1.0  0.99000  0.00967  0.63400  1.0000
  Ba  Ba5       1.0  0.14500  0.85500  0.53400  1.0000
  Ba  Ba6       1.0  0.85500  0.14500  0.46600  1.0000
  Ba  Ba7       1.0  0.50000  0.50000  0.00000  1.0000
  Ba  Ba8       1.0  0.38100  0.61900  0.84300  1.0000
  Ba  Ba9       1.0  0.61900  0.38100  0.15700  1.0000
  Ba  Ba10      1.0  0.34500  0.65500  0.09880  1.0000
  Ba  Ba11      1.0  0.65500  0.34500  0.90100  1.0000
  Bi  Bi1       1.0  0.25600  0.74400  0.88200  1.0000
  Bi  Bi2       1.0  0.74400  0.25600  0.11800  1.0000
  Bi  Bi3       1.0  0.27200  0.72800  0.54300  1.0000
  Bi  Bi4       1.0  0.72800  0.27200  0.45700  1.0000
  Bi  Bi5       1.0  0.14900  0.85100  0.73900  1.0000
  Bi  Bi6       1.0  0.85100  0.14900  0.26100  1.0000
  Bi  Bi7       1.0  0.13100  0.86900  0.29700  1.0000
  Bi  Bi8       1.0  0.86900  0.13100  0.70300  1.0000
  Bi  Bi9       1.0  0.44200  0.55800  0.48400  1.0000
  Bi  Bi10      1.0  0.55800  0.44200  0.51600  1.0000
  Bi  Bi11      1.0  0.09210  0.90800  0.01300  1.0000
  Bi  Bi12      1.0  0.90800  0.09210  0.98700  1.0000
  Bi  Bi13      1.0  0.49400  0.50600  0.21000  1.0000
  Bi  Bi14      1.0  0.50600  0.49400  0.79000  1.0000
  Cd  Cd1       1.0  0.40900  0.59100  0.31300  1.0000
  Cd  Cd2       1.0  0.59100  0.40900  0.68700  1.0000
  Cd  Cd3       1.0  0.37500  0.62500  0.61500  1.0000
  Cd  Cd4       1.0  0.62500  0.37500  0.38500  1.0000
  Cd  Cd5       1.0  0.06180  0.93800  0.84000  1.0000
  Cd  Cd6       1.0  0.93800  0.06180  0.16000  1.0000
  Cd  Cd7       1.0  0.20100  0.79900  0.04250  1.0000
  Cd  Cd8       1.0  0.79900  0.20100  0.95700  1.0000
