data_image0
_chemical_formula_structural       As4K6Nd2S16
_chemical_formula_sum              "As4 K6 Nd2 S16"
_cell_length_a       10.8098
_cell_length_b       10.8098
_cell_length_c       8.98133
_cell_angle_alpha    77.1977
_cell_angle_beta     102.802
_cell_angle_gamma    58.2406

_space_group_name_H-M_alt    "P 1"
_space_group_IT_number       1

loop_
  _space_group_symop_operation_xyz
  'x, y, z'

loop_
  _atom_site_type_symbol
  _atom_site_label
  _atom_site_symmetry_multiplicity
  _atom_site_fract_x
  _atom_site_fract_y
  _atom_site_fract_z
  _atom_site_occupancy
  As  As1       1.0  0.90300  0.34000  0.39400  1.0000
  As  As2       1.0  0.34000  0.90300  0.10600  1.0000
  As  As3       1.0  0.66000  0.09720  0.89400  1.0000
  As  As4       1.0  0.09720  0.66000  0.60600  1.0000
  K   K1        1.0  0.73800  0.73800  0.75000  1.0000
  K   K2        1.0  0.26200  0.26200  0.25000  1.0000
  K   K3        1.0  0.50000  0.50000  0.00000  1.0000
  K   K4        1.0  0.50000  0.50000  0.50000  1.0000
  K   K5        1.0  0.00251  0.00251  0.25000  1.0000
  K   K6        1.0  0.99700  0.99700  0.75000  1.0000
  Nd  Nd1       1.0  0.75700  0.75700  0.25000  1.0000
  Nd  Nd2       1.0  0.24300  0.24300  0.75000  1.0000
  S   S1        1.0  0.53100  0.12700  0.05770  1.0000
  S   S2        1.0  0.12700  0.53100  0.44200  1.0000
  S   S3        1.0  0.46900  0.87300  0.94200  1.0000
  S   S4        1.0  0.87300  0.46900  0.55800  1.0000
  S   S5        1.0  0.86900  0.84500  0.01490  1.0000
  S   S6        1.0  0.84500  0.86900  0.48500  1.0000
  S   S7        1.0  0.13100  0.15500  0.98500  1.0000
  S   S8        1.0  0.15500  0.13100  0.51500  1.0000
  S   S9        1.0  0.26300  0.75500  0.12900  1.0000
  S   S10       1.0  0.75500  0.26300  0.37100  1.0000
  S   S11       1.0  0.73700  0.24500  0.87100  1.0000
  S   S12       1.0  0.24500  0.73700  0.62900  1.0000
  S   S13       1.0  0.85900  0.49300  0.15000  1.0000
  S   S14       1.0  0.49300  0.85900  0.35000  1.0000
  S   S15       1.0  0.14100  0.50700  0.85000  1.0000
  S   S16       1.0  0.50700  0.14100  0.65000  1.0000
