data_image0
_chemical_formula_structural       Ba3Co10O17
_chemical_formula_sum              "Ba3 Co10 O17"
_cell_length_a       12.3947
_cell_length_b       12.4203
_cell_length_c       12.4069
_cell_angle_alpha    26.5849
_cell_angle_beta     26.7059
_cell_angle_gamma    26.6148

_space_group_name_H-M_alt    "P 1"
_space_group_IT_number       1

loop_
  _space_group_symop_operation_xyz
  'x, y, z'

loop_
  _atom_site_type_symbol
  _atom_site_label
  _atom_site_symmetry_multiplicity
  _atom_site_fract_x
  _atom_site_fract_y
  _atom_site_fract_z
  _atom_site_occupancy
  Ba  Ba1       1.0  0.60100  0.59700  0.60100  1.0000
  Ba  Ba2       1.0  0.39800  0.40400  0.39800  1.0000
  Ba  Ba3       1.0  0.00062  0.00018  0.00043  1.0000
  Co  Co1       1.0  0.49900  0.49900  0.49900  1.0000
  Co  Co2       1.0  0.30500  0.30500  0.30500  1.0000
  Co  Co3       1.0  0.68800  0.70000  0.68800  1.0000
  Co  Co4       1.0  1.00000  0.50000  0.99900  1.0000
  Co  Co5       1.0  0.00000  0.99900  0.50100  1.0000
  Co  Co6       1.0  0.50100  0.99900  0.00000  1.0000
  Co  Co7       1.0  0.23400  0.23100  0.23300  1.0000
  Co  Co8       1.0  0.76500  0.77000  0.76600  1.0000
  Co  Co9       1.0  0.91500  0.91400  0.91600  1.0000
  Co  Co10      1.0  0.08340  0.08980  0.08360  1.0000
  O   O1        1.0  0.49900  0.00278  0.49900  1.0000
  O   O2        1.0  0.49800  0.49100  0.01000  1.0000
  O   O3        1.0  0.01010  0.49100  0.49800  1.0000
  O   O4        1.0  0.88300  0.43500  0.88300  1.0000
  O   O5        1.0  0.88500  0.88900  0.42800  1.0000
  O   O6        1.0  0.42700  0.88900  0.88600  1.0000
  O   O7        1.0  0.57600  0.11300  0.11700  1.0000
  O   O8        1.0  0.11700  0.11300  0.57500  1.0000
  O   O9        1.0  0.11700  0.57300  0.11600  1.0000
  O   O10       1.0  0.13800  0.13700  0.13800  1.0000
  O   O11       1.0  0.86300  0.86200  0.86400  1.0000
  O   O12       1.0  0.87200  0.36200  0.36300  1.0000
  O   O13       1.0  0.36400  0.86900  0.36300  1.0000
  O   O14       1.0  0.36400  0.36200  0.87100  1.0000
  O   O15       1.0  0.64000  0.12000  0.64100  1.0000
  O   O16       1.0  0.11800  0.64100  0.64100  1.0000
  O   O17       1.0  0.64000  0.64200  0.11800  1.0000
