data_image0
_chemical_formula_structural       FeH10N4O8S2
_chemical_formula_sum              "Fe1 H10 N4 O8 S2"
_cell_length_a       4.66486
_cell_length_b       5.28024
_cell_length_c       7.47574
_cell_angle_alpha    92.0966
_cell_angle_beta     104.17
_cell_angle_gamma    92.1725

_space_group_name_H-M_alt    "P 1"
_space_group_IT_number       1

loop_
  _space_group_symop_operation_xyz
  'x, y, z'

loop_
  _atom_site_type_symbol
  _atom_site_label
  _atom_site_symmetry_multiplicity
  _atom_site_fract_x
  _atom_site_fract_y
  _atom_site_fract_z
  _atom_site_occupancy
  Fe  Fe1       1.0  0.00000  0.00000  0.00000  1.0000
  H   H1        1.0  0.87600  0.73700  0.34700  1.0000
  H   H2        1.0  0.12400  0.26300  0.65300  1.0000
  H   H3        1.0  0.20900  0.60500  0.43500  1.0000
  H   H4        1.0  0.79100  0.39400  0.56500  1.0000
  H   H5        1.0  0.20600  0.91500  0.40000  1.0000
  H   H6        1.0  0.79400  0.08540  0.60000  1.0000
  H   H7        1.0  0.35700  0.69100  0.18000  1.0000
  H   H8        1.0  0.64300  0.30900  0.82000  1.0000
  H   H9        1.0  0.04600  0.51700  0.13000  1.0000
  H   H10       1.0  0.95400  0.48300  0.87000  1.0000
  N   N1        1.0  0.13200  0.70000  0.16500  1.0000
  N   N2        1.0  0.86800  0.30000  0.83500  1.0000
  N   N3        1.0  0.09930  0.74100  0.34800  1.0000
  N   N4        1.0  0.90100  0.25900  0.65200  1.0000
  O   O1        1.0  0.60000  0.46800  0.34400  1.0000
  O   O2        1.0  0.40000  0.53200  0.65600  1.0000
  O   O3        1.0  0.57200  0.00808  0.33500  1.0000
  O   O4        1.0  0.42900  0.99200  0.66500  1.0000
  O   O5        1.0  0.93700  0.22700  0.21900  1.0000
  O   O6        1.0  0.06330  0.77300  0.78100  1.0000
  O   O7        1.0  0.41700  0.23400  0.05070  1.0000
  O   O8        1.0  0.58300  0.76600  0.94900  1.0000
  S   S1        1.0  0.62200  0.23300  0.23600  1.0000
  S   S2        1.0  0.37800  0.76800  0.76400  1.0000
