data_image0
_chemical_formula_structural       F6Na2U
_chemical_formula_sum              "F6 Na2 U1"
_cell_length_a       3.96049
_cell_length_b       5.35913
_cell_length_c       6.41532
_cell_angle_alpha    114.688
_cell_angle_beta     107.979
_cell_angle_gamma    90

_space_group_name_H-M_alt    "P 1"
_space_group_IT_number       1

loop_
  _space_group_symop_operation_xyz
  'x, y, z'

loop_
  _atom_site_type_symbol
  _atom_site_label
  _atom_site_symmetry_multiplicity
  _atom_site_fract_x
  _atom_site_fract_y
  _atom_site_fract_z
  _atom_site_occupancy
  F   F1        1.0  0.50000  0.23600  0.00000  1.0000
  F   F2        1.0  0.50000  0.76400  0.00000  1.0000
  F   F3        1.0  0.15800  0.41000  0.31700  1.0000
  F   F4        1.0  0.15800  0.90700  0.31700  1.0000
  F   F5        1.0  0.84200  0.09270  0.68300  1.0000
  F   F6        1.0  0.84200  0.59000  0.68300  1.0000
  Na  Na1       1.0  0.67100  0.67100  0.34200  1.0000
  Na  Na2       1.0  0.32900  0.32900  0.65800  1.0000
  U   U1        1.0  0.00000  0.00000  0.00000  1.0000
