data_image0
_chemical_formula_structural       Ca2Cl2H8O12Re2
_chemical_formula_sum              "Ca2 Cl2 H8 O12 Re2"
_cell_length_a       7.41015
_cell_length_b       7.41015
_cell_length_c       6.4198
_cell_angle_alpha    90
_cell_angle_beta     90
_cell_angle_gamma    53.2223

_space_group_name_H-M_alt    "P 1"
_space_group_IT_number       1

loop_
  _space_group_symop_operation_xyz
  'x, y, z'

loop_
  _atom_site_type_symbol
  _atom_site_label
  _atom_site_symmetry_multiplicity
  _atom_site_fract_x
  _atom_site_fract_y
  _atom_site_fract_z
  _atom_site_occupancy
  Ca  Ca1       1.0  0.43000  0.43000  0.25000  1.0000
  Ca  Ca2       1.0  0.57000  0.57000  0.75000  1.0000
  Cl  Cl1       1.0  0.86300  0.86300  0.75000  1.0000
  Cl  Cl2       1.0  0.13700  0.13700  0.25000  1.0000
  H   H1        1.0  0.87400  0.23000  0.06140  1.0000
  H   H2        1.0  0.12600  0.77000  0.56100  1.0000
  H   H3        1.0  0.77000  0.12600  0.93900  1.0000
  H   H4        1.0  0.23000  0.87400  0.43900  1.0000
  H   H5        1.0  0.12600  0.77000  0.93900  1.0000
  H   H6        1.0  0.87400  0.23000  0.43900  1.0000
  H   H7        1.0  0.23000  0.87400  0.06140  1.0000
  H   H8        1.0  0.77000  0.12600  0.56100  1.0000
  O   O1        1.0  0.33100  0.33100  0.53700  1.0000
  O   O2        1.0  0.66900  0.66900  0.03660  1.0000
  O   O3        1.0  0.66900  0.66900  0.46300  1.0000
  O   O4        1.0  0.33100  0.33100  0.96300  1.0000
  O   O5        1.0  0.38200  0.96200  0.75000  1.0000
  O   O6        1.0  0.61800  0.03770  0.25000  1.0000
  O   O7        1.0  0.03770  0.61800  0.25000  1.0000
  O   O8        1.0  0.96200  0.38200  0.75000  1.0000
  O   O9        1.0  0.73200  0.26800  0.50000  1.0000
  O   O10       1.0  0.26800  0.73200  0.00000  1.0000
  O   O11       1.0  0.26800  0.73200  0.50000  1.0000
  O   O12       1.0  0.73200  0.26800  0.00000  1.0000
  Re  Re1       1.0  0.25000  0.25000  0.75000  1.0000
  Re  Re2       1.0  0.75000  0.75000  0.25000  1.0000
