data_image0
_chemical_formula_structural       B4Mo2O18Pr4
_chemical_formula_sum              "B4 Mo2 O18 Pr4"
_cell_length_a       5.13066
_cell_length_b       6.90815
_cell_length_c       10.2761
_cell_angle_alpha    75.0855
_cell_angle_beta     76.3867
_cell_angle_gamma    75.2845

_space_group_name_H-M_alt    "P 1"
_space_group_IT_number       1

loop_
  _space_group_symop_operation_xyz
  'x, y, z'

loop_
  _atom_site_type_symbol
  _atom_site_label
  _atom_site_symmetry_multiplicity
  _atom_site_fract_x
  _atom_site_fract_y
  _atom_site_fract_z
  _atom_site_occupancy
  B   B1        1.0  0.44500  0.58900  0.85800  1.0000
  B   B2        1.0  0.55500  0.41100  0.14200  1.0000
  B   B3        1.0  0.74300  0.25500  0.84200  1.0000
  B   B4        1.0  0.25700  0.74500  0.15800  1.0000
  Mo  Mo1       1.0  0.00693  0.70200  0.58000  1.0000
  Mo  Mo2       1.0  0.99300  0.29800  0.42000  1.0000
  O   O1        1.0  0.99600  0.14200  0.86400  1.0000
  O   O2        1.0  0.00360  0.85800  0.13600  1.0000
  O   O3        1.0  0.54500  0.14700  0.85900  1.0000
  O   O4        1.0  0.45500  0.85300  0.14100  1.0000
  O   O5        1.0  0.70000  0.46800  0.81400  1.0000
  O   O6        1.0  0.30000  0.53200  0.18600  1.0000
  O   O7        1.0  0.21600  0.51300  0.90400  1.0000
  O   O8        1.0  0.78400  0.48700  0.09590  1.0000
  O   O9        1.0  0.44600  0.78400  0.86500  1.0000
  O   O10       1.0  0.55400  0.21600  0.13500  1.0000
  O   O11       1.0  0.35400  0.19700  0.43200  1.0000
  O   O12       1.0  0.64600  0.80300  0.56800  1.0000
  O   O13       1.0  0.06550  0.82600  0.69900  1.0000
  O   O14       1.0  0.93500  0.17400  0.30100  1.0000
  O   O15       1.0  0.19500  0.80600  0.42000  1.0000
  O   O16       1.0  0.80500  0.19400  0.58000  1.0000
  O   O17       1.0  0.15000  0.43500  0.61200  1.0000
  O   O18       1.0  0.85000  0.56500  0.38800  1.0000
  Pr  Pr1       1.0  0.37200  0.08130  0.68300  1.0000
  Pr  Pr2       1.0  0.62800  0.91900  0.31700  1.0000
  Pr  Pr3       1.0  0.15000  0.20400  0.05200  1.0000
  Pr  Pr4       1.0  0.85000  0.79600  0.94800  1.0000
