data_image0
_chemical_formula_structural       B6Na6O18Sc4
_chemical_formula_sum              "B6 Na6 O18 Sc4"
_cell_length_a       8.2189
_cell_length_b       8.21857
_cell_length_c       8.21898
_cell_angle_alpha    61.7769
_cell_angle_beta     61.7777
_cell_angle_gamma    61.7744

_space_group_name_H-M_alt    "P 1"
_space_group_IT_number       1

loop_
  _space_group_symop_operation_xyz
  'x, y, z'

loop_
  _atom_site_type_symbol
  _atom_site_label
  _atom_site_symmetry_multiplicity
  _atom_site_fract_x
  _atom_site_fract_y
  _atom_site_fract_z
  _atom_site_occupancy
  B   B1        1.0  0.75000  0.40600  0.09410  1.0000
  B   B2        1.0  0.09410  0.75000  0.40600  1.0000
  B   B3        1.0  0.40600  0.09400  0.75000  1.0000
  B   B4        1.0  0.25000  0.59400  0.90600  1.0000
  B   B5        1.0  0.90600  0.25000  0.59400  1.0000
  B   B6        1.0  0.59400  0.90600  0.25000  1.0000
  Na  Na1       1.0  0.08050  0.41900  0.75000  1.0000
  Na  Na2       1.0  0.75000  0.08050  0.42000  1.0000
  Na  Na3       1.0  0.41900  0.75000  0.08040  1.0000
  Na  Na4       1.0  0.92000  0.58100  0.25000  1.0000
  Na  Na5       1.0  0.25000  0.92000  0.58000  1.0000
  Na  Na6       1.0  0.58100  0.25000  0.92000  1.0000
  O   O1        1.0  0.75000  0.56900  0.93100  1.0000
  O   O2        1.0  0.93100  0.75000  0.56900  1.0000
  O   O3        1.0  0.56900  0.93100  0.75000  1.0000
  O   O4        1.0  0.25000  0.43100  0.06880  1.0000
  O   O5        1.0  0.06880  0.25000  0.43100  1.0000
  O   O6        1.0  0.43100  0.06880  0.25000  1.0000
  O   O7        1.0  0.66800  0.81700  0.40000  1.0000
  O   O8        1.0  0.40000  0.66800  0.81700  1.0000
  O   O9        1.0  0.81700  0.40000  0.66800  1.0000
  O   O10       1.0  0.68300  0.83200  0.09960  1.0000
  O   O11       1.0  0.83200  0.09970  0.68300  1.0000
  O   O12       1.0  0.09980  0.68300  0.83200  1.0000
  O   O13       1.0  0.33200  0.18300  0.60000  1.0000
  O   O14       1.0  0.60000  0.33200  0.18300  1.0000
  O   O15       1.0  0.18300  0.60000  0.33200  1.0000
  O   O16       1.0  0.31700  0.16800  0.90000  1.0000
  O   O17       1.0  0.16800  0.90000  0.31700  1.0000
  O   O18       1.0  0.90000  0.31700  0.16800  1.0000
  Sc  Sc1       1.0  0.67300  0.67300  0.67300  1.0000
  Sc  Sc2       1.0  0.82700  0.82700  0.82700  1.0000
  Sc  Sc3       1.0  0.32700  0.32700  0.32700  1.0000
  Sc  Sc4       1.0  0.17300  0.17300  0.17300  1.0000
