data_image0
_chemical_formula_structural       Li8Na8O56Ti24
_chemical_formula_sum              "Li8 Na8 O56 Ti24"
_cell_length_a       9.87296
_cell_length_b       9.87296
_cell_length_c       11.4245
_cell_angle_alpha    90
_cell_angle_beta     90
_cell_angle_gamma    111.726

_space_group_name_H-M_alt    "P 1"
_space_group_IT_number       1

loop_
  _space_group_symop_operation_xyz
  'x, y, z'

loop_
  _atom_site_type_symbol
  _atom_site_label
  _atom_site_symmetry_multiplicity
  _atom_site_fract_x
  _atom_site_fract_y
  _atom_site_fract_z
  _atom_site_occupancy
  Li  Li1       1.0  0.43000  0.06930  0.12500  1.0000
  Li  Li2       1.0  0.07030  0.43100  0.62500  1.0000
  Li  Li3       1.0  0.93100  0.57000  0.87500  1.0000
  Li  Li4       1.0  0.56900  0.93000  0.37500  1.0000
  Li  Li5       1.0  0.57000  0.93100  0.87500  1.0000
  Li  Li6       1.0  0.93000  0.56900  0.37500  1.0000
  Li  Li7       1.0  0.06930  0.43000  0.12500  1.0000
  Li  Li8       1.0  0.43100  0.07030  0.62500  1.0000
  Na  Na1       1.0  0.12700  0.12700  0.13000  1.0000
  Na  Na2       1.0  0.37300  0.37300  0.63000  1.0000
  Na  Na3       1.0  0.87300  0.87300  0.87000  1.0000
  Na  Na4       1.0  0.62700  0.62700  0.37000  1.0000
  Na  Na5       1.0  0.37500  0.37500  0.12200  1.0000
  Na  Na6       1.0  0.12500  0.12500  0.62200  1.0000
  Na  Na7       1.0  0.62500  0.62500  0.87800  1.0000
  Na  Na8       1.0  0.87500  0.87500  0.37800  1.0000
  O   O1        1.0  0.42400  0.42400  0.37800  1.0000
  O   O2        1.0  0.07570  0.07570  0.87800  1.0000
  O   O3        1.0  0.57600  0.57600  0.62200  1.0000
  O   O4        1.0  0.92400  0.92400  0.12200  1.0000
  O   O5        1.0  0.64800  0.85300  0.01010  1.0000
  O   O6        1.0  0.85200  0.64700  0.51000  1.0000
  O   O7        1.0  0.14700  0.35200  0.99000  1.0000
  O   O8        1.0  0.35300  0.14800  0.49000  1.0000
  O   O9        1.0  0.35200  0.14700  0.99000  1.0000
  O   O10       1.0  0.14800  0.35300  0.49000  1.0000
  O   O11       1.0  0.85300  0.64800  0.01010  1.0000
  O   O12       1.0  0.64700  0.85200  0.51000  1.0000
  O   O13       1.0  0.07800  0.07800  0.37300  1.0000
  O   O14       1.0  0.42200  0.42200  0.87300  1.0000
  O   O15       1.0  0.92200  0.92200  0.62700  1.0000
  O   O16       1.0  0.57800  0.57800  0.12700  1.0000
  O   O17       1.0  0.35500  0.15000  0.26000  1.0000
  O   O18       1.0  0.14500  0.35000  0.76000  1.0000
  O   O19       1.0  0.85000  0.64500  0.74000  1.0000
  O   O20       1.0  0.65000  0.85500  0.24000  1.0000
  O   O21       1.0  0.64500  0.85000  0.74000  1.0000
  O   O22       1.0  0.85500  0.65000  0.24000  1.0000
  O   O23       1.0  0.15000  0.35500  0.26000  1.0000
  O   O24       1.0  0.35000  0.14500  0.76000  1.0000
  O   O25       1.0  0.13300  0.86700  0.00000  1.0000
  O   O26       1.0  0.36700  0.63300  0.50000  1.0000
  O   O27       1.0  0.86700  0.13300  0.00000  1.0000
  O   O28       1.0  0.63300  0.36700  0.50000  1.0000
  O   O29       1.0  0.37100  0.62900  0.00000  1.0000
  O   O30       1.0  0.12900  0.87100  0.50000  1.0000
  O   O31       1.0  0.62900  0.37100  0.00000  1.0000
  O   O32       1.0  0.87100  0.12900  0.50000  1.0000
  O   O33       1.0  0.38400  0.85600  0.12500  1.0000
  O   O34       1.0  0.11600  0.64400  0.62500  1.0000
  O   O35       1.0  0.14400  0.61600  0.87500  1.0000
  O   O36       1.0  0.35600  0.88400  0.37500  1.0000
  O   O37       1.0  0.61600  0.14400  0.87500  1.0000
  O   O38       1.0  0.88400  0.35600  0.37500  1.0000
  O   O39       1.0  0.85600  0.38400  0.12500  1.0000
  O   O40       1.0  0.64400  0.11600  0.62500  1.0000
  O   O41       1.0  0.13300  0.87100  0.24800  1.0000
  O   O42       1.0  0.36700  0.62900  0.74800  1.0000
  O   O43       1.0  0.12900  0.86700  0.75200  1.0000
  O   O44       1.0  0.37100  0.63300  0.25200  1.0000
  O   O45       1.0  0.86700  0.12900  0.75200  1.0000
  O   O46       1.0  0.63300  0.37100  0.25200  1.0000
  O   O47       1.0  0.87100  0.13300  0.24800  1.0000
  O   O48       1.0  0.62900  0.36700  0.74800  1.0000
  O   O49       1.0  0.64300  0.11900  0.12500  1.0000
  O   O50       1.0  0.85700  0.38100  0.62500  1.0000
  O   O51       1.0  0.88100  0.35700  0.87500  1.0000
  O   O52       1.0  0.61900  0.14300  0.37500  1.0000
  O   O53       1.0  0.35700  0.88100  0.87500  1.0000
  O   O54       1.0  0.14300  0.61900  0.37500  1.0000
  O   O55       1.0  0.11900  0.64300  0.12500  1.0000
  O   O56       1.0  0.38100  0.85700  0.62500  1.0000
  Ti  Ti1       1.0  0.48800  0.27100  0.37600  1.0000
  Ti  Ti2       1.0  0.01160  0.22900  0.87600  1.0000
  Ti  Ti3       1.0  0.72900  0.51200  0.62400  1.0000
  Ti  Ti4       1.0  0.77100  0.98800  0.12400  1.0000
  Ti  Ti5       1.0  0.51200  0.72900  0.62400  1.0000
  Ti  Ti6       1.0  0.98800  0.77100  0.12400  1.0000
  Ti  Ti7       1.0  0.27100  0.48800  0.37600  1.0000
  Ti  Ti8       1.0  0.22900  0.01160  0.87600  1.0000
  Ti  Ti9       1.0  0.25000  0.75000  0.25000  1.0000
  Ti  Ti10      1.0  0.25000  0.75000  0.75000  1.0000
  Ti  Ti11      1.0  0.75000  0.25000  0.75000  1.0000
  Ti  Ti12      1.0  0.75000  0.25000  0.25000  1.0000
  Ti  Ti13      1.0  0.25300  0.74700  0.00000  1.0000
  Ti  Ti14      1.0  0.24700  0.75300  0.50000  1.0000
  Ti  Ti15      1.0  0.74700  0.25300  0.00000  1.0000
  Ti  Ti16      1.0  0.75300  0.24700  0.50000  1.0000
  Ti  Ti17      1.0  0.23300  0.01550  0.37400  1.0000
  Ti  Ti18      1.0  0.26700  0.48500  0.87400  1.0000
  Ti  Ti19      1.0  0.98500  0.76700  0.62600  1.0000
  Ti  Ti20      1.0  0.51500  0.73300  0.12600  1.0000
  Ti  Ti21      1.0  0.76700  0.98500  0.62600  1.0000
  Ti  Ti22      1.0  0.73300  0.51500  0.12600  1.0000
  Ti  Ti23      1.0  0.01550  0.23300  0.37400  1.0000
  Ti  Ti24      1.0  0.48500  0.26700  0.87400  1.0000
