data_image0
_chemical_formula_structural       Ba6Ca2Ir4O18
_chemical_formula_sum              "Ba6 Ca2 Ir4 O18"
_cell_length_a       5.83023
_cell_length_b       5.83023
_cell_length_c       14.5161
_cell_angle_alpha    89.5819
_cell_angle_beta     90.4181
_cell_angle_gamma    60.03

_space_group_name_H-M_alt    "P 1"
_space_group_IT_number       1

loop_
  _space_group_symop_operation_xyz
  'x, y, z'

loop_
  _atom_site_type_symbol
  _atom_site_label
  _atom_site_symmetry_multiplicity
  _atom_site_fract_x
  _atom_site_fract_y
  _atom_site_fract_z
  _atom_site_occupancy
  Ba  Ba1       1.0  0.33700  0.33000  0.08800  1.0000
  Ba  Ba2       1.0  0.33000  0.33700  0.41200  1.0000
  Ba  Ba3       1.0  0.66300  0.67000  0.91200  1.0000
  Ba  Ba4       1.0  0.67000  0.66300  0.58800  1.0000
  Ba  Ba5       1.0  0.99900  0.99900  0.25000  1.0000
  Ba  Ba6       1.0  0.00056  0.00056  0.75000  1.0000
  Ca  Ca1       1.0  0.00000  0.00000  0.00000  1.0000
  Ca  Ca2       1.0  0.00000  0.00000  0.50000  1.0000
  Ir  Ir1       1.0  0.32700  0.34000  0.83700  1.0000
  Ir  Ir2       1.0  0.34000  0.32700  0.66300  1.0000
  Ir  Ir3       1.0  0.67300  0.66000  0.16300  1.0000
  Ir  Ir4       1.0  0.66000  0.67300  0.33700  1.0000
  O   O1        1.0  0.83600  0.34200  0.09220  1.0000
  O   O2        1.0  0.34200  0.83600  0.40800  1.0000
  O   O3        1.0  0.16400  0.65800  0.90800  1.0000
  O   O4        1.0  0.65800  0.16400  0.59200  1.0000
  O   O5        1.0  0.36800  0.81000  0.08270  1.0000
  O   O6        1.0  0.81000  0.36800  0.41700  1.0000
  O   O7        1.0  0.63200  0.19000  0.91700  1.0000
  O   O8        1.0  0.19000  0.63200  0.58300  1.0000
  O   O9        1.0  0.83600  0.81100  0.08840  1.0000
  O   O10       1.0  0.81100  0.83600  0.41200  1.0000
  O   O11       1.0  0.16400  0.18900  0.91200  1.0000
  O   O12       1.0  0.18900  0.16400  0.58800  1.0000
  O   O13       1.0  0.50600  0.98600  0.24600  1.0000
  O   O14       1.0  0.98600  0.50600  0.25400  1.0000
  O   O15       1.0  0.49400  0.01380  0.75400  1.0000
  O   O16       1.0  0.01380  0.49400  0.74600  1.0000
  O   O17       1.0  0.50600  0.50600  0.25000  1.0000
  O   O18       1.0  0.49400  0.49400  0.75000  1.0000
