data_image0
_chemical_formula_structural       Li4O30U6V4
_chemical_formula_sum              "Li4 O30 U6 V4"
_cell_length_a       13.1561
_cell_length_b       13.1561
_cell_length_c       13.1561
_cell_angle_alpha    147.669
_cell_angle_beta     147.669
_cell_angle_gamma    46.3743

_space_group_name_H-M_alt    "P 1"
_space_group_IT_number       1

loop_
  _space_group_symop_operation_xyz
  'x, y, z'

loop_
  _atom_site_type_symbol
  _atom_site_label
  _atom_site_symmetry_multiplicity
  _atom_site_fract_x
  _atom_site_fract_y
  _atom_site_fract_z
  _atom_site_occupancy
  Li  Li1       1.0  0.21500  0.46500  0.75000  1.0000
  Li  Li2       1.0  0.78500  0.53500  0.25000  1.0000
  Li  Li3       1.0  0.53500  0.78500  0.75000  1.0000
  Li  Li4       1.0  0.46500  0.21500  0.25000  1.0000
  O   O1        1.0  0.21400  0.71800  0.00376  1.0000
  O   O2        1.0  0.21400  0.21000  0.49600  1.0000
  O   O3        1.0  0.78600  0.79000  0.50400  1.0000
  O   O4        1.0  0.78600  0.28200  0.99600  1.0000
  O   O5        1.0  0.28200  0.78600  0.49600  1.0000
  O   O6        1.0  0.79000  0.78600  0.00376  1.0000
  O   O7        1.0  0.21000  0.21400  0.99600  1.0000
  O   O8        1.0  0.71800  0.21400  0.50400  1.0000
  O   O9        1.0  0.47800  0.04990  0.42800  1.0000
  O   O10       1.0  0.12200  0.04990  0.07240  1.0000
  O   O11       1.0  0.52200  0.95000  0.57200  1.0000
  O   O12       1.0  0.87800  0.95000  0.92800  1.0000
  O   O13       1.0  0.95000  0.52200  0.07240  1.0000
  O   O14       1.0  0.95000  0.87800  0.42800  1.0000
  O   O15       1.0  0.04990  0.47800  0.92800  1.0000
  O   O16       1.0  0.04990  0.12200  0.57200  1.0000
  O   O17       1.0  0.30000  0.55000  0.75000  1.0000
  O   O18       1.0  0.70000  0.45000  0.25000  1.0000
  O   O19       1.0  0.45000  0.70000  0.75000  1.0000
  O   O20       1.0  0.55000  0.30000  0.25000  1.0000
  O   O21       1.0  0.38900  0.32900  0.44000  1.0000
  O   O22       1.0  0.38900  0.94900  0.06010  1.0000
  O   O23       1.0  0.61100  0.05120  0.94000  1.0000
  O   O24       1.0  0.61100  0.67100  0.56000  1.0000
  O   O25       1.0  0.67100  0.61100  0.06010  1.0000
  O   O26       1.0  0.05120  0.61100  0.44000  1.0000
  O   O27       1.0  0.94900  0.38900  0.56000  1.0000
  O   O28       1.0  0.32900  0.38900  0.94000  1.0000
  O   O29       1.0  0.12500  0.87500  0.25000  1.0000
  O   O30       1.0  0.87500  0.12500  0.75000  1.0000
  U   U1        1.0  0.37500  0.62500  0.75000  1.0000
  U   U2        1.0  0.62500  0.37500  0.25000  1.0000
  U   U3        1.0  0.21200  0.96200  0.25000  1.0000
  U   U4        1.0  0.78800  0.03750  0.75000  1.0000
  U   U5        1.0  0.03750  0.78800  0.25000  1.0000
  U   U6        1.0  0.96200  0.21200  0.75000  1.0000
  V   V1        1.0  0.34700  0.09690  0.25000  1.0000
  V   V2        1.0  0.65300  0.90300  0.75000  1.0000
  V   V3        1.0  0.90300  0.65300  0.25000  1.0000
  V   V4        1.0  0.09690  0.34700  0.75000  1.0000
