data_image0
_chemical_formula_structural       Cl2Fe5O18Te6
_chemical_formula_sum              "Cl2 Fe5 O18 Te6"
_cell_length_a       4.90136
_cell_length_b       10.1127
_cell_length_c       9.13983
_cell_angle_alpha    103.558
_cell_angle_beta     105.219
_cell_angle_gamma    89.2502

_space_group_name_H-M_alt    "P 1"
_space_group_IT_number       1

loop_
  _space_group_symop_operation_xyz
  'x, y, z'

loop_
  _atom_site_type_symbol
  _atom_site_label
  _atom_site_symmetry_multiplicity
  _atom_site_fract_x
  _atom_site_fract_y
  _atom_site_fract_z
  _atom_site_occupancy
  Cl  Cl1       1.0  0.25000  0.37400  0.44900  1.0000
  Cl  Cl2       1.0  0.76200  0.62100  0.54800  1.0000
  Fe  Fe1       1.0  0.29300  0.04370  0.58500  1.0000
  Fe  Fe2       1.0  0.69900  0.95200  0.41400  1.0000
  Fe  Fe3       1.0  0.52500  0.79300  0.08860  1.0000
  Fe  Fe4       1.0  0.47600  0.20300  0.91200  1.0000
  Fe  Fe5       1.0  0.00544  0.50400  0.99800  1.0000
  O   O1        1.0  0.36200  0.06030  0.38300  1.0000
  O   O2        1.0  0.63600  0.94200  0.62100  1.0000
  O   O3        1.0  0.74600  0.36700  0.05480  1.0000
  O   O4        1.0  0.24500  0.62900  0.93100  1.0000
  O   O5        1.0  0.45500  0.78600  0.29900  1.0000
  O   O6        1.0  0.54400  0.21500  0.71100  1.0000
  O   O7        1.0  0.79400  0.95800  0.22100  1.0000
  O   O8        1.0  0.20800  0.05060  0.78800  1.0000
  O   O9        1.0  0.59000  0.78900  0.86700  1.0000
  O   O10       1.0  0.41100  0.21400  0.12100  1.0000
  O   O11       1.0  0.11400  0.33300  0.84700  1.0000
  O   O12       1.0  0.89200  0.66400  0.15500  1.0000
  O   O13       1.0  0.06560  0.86400  0.47700  1.0000
  O   O14       1.0  0.93200  0.13600  0.52900  1.0000
  O   O15       1.0  0.78200  0.06710  0.94300  1.0000
  O   O16       1.0  0.20300  0.93500  0.05650  1.0000
  O   O17       1.0  0.68500  0.49800  0.81800  1.0000
  O   O18       1.0  0.31800  0.50300  0.18100  1.0000
  Te  Te1       1.0  0.82700  0.30500  0.65000  1.0000
  Te  Te2       1.0  0.17600  0.69400  0.35400  1.0000
  Te  Te3       1.0  0.06600  0.07790  0.19300  1.0000
  Te  Te4       1.0  0.92900  0.92000  0.81100  1.0000
  Te  Te5       1.0  0.60900  0.38400  0.23900  1.0000
  Te  Te6       1.0  0.39900  0.61800  0.75500  1.0000
