data_image0
_chemical_formula_structural       Mo2O8Sr2
_chemical_formula_sum              "Mo2 O8 Sr2"
_cell_length_a       6.85367
_cell_length_b       6.82931
_cell_length_c       6.85514
_cell_angle_alpha    133.9
_cell_angle_beta     66.9635
_cell_angle_gamma    134.777

_space_group_name_H-M_alt    "P 1"
_space_group_IT_number       1

loop_
  _space_group_symop_operation_xyz
  'x, y, z'

loop_
  _atom_site_type_symbol
  _atom_site_label
  _atom_site_symmetry_multiplicity
  _atom_site_fract_x
  _atom_site_fract_y
  _atom_site_fract_z
  _atom_site_occupancy
  Mo  Mo1       1.0  0.87100  0.75000  0.62100  1.0000
  Mo  Mo2       1.0  0.12900  0.25000  0.37900  1.0000
  O   O1        1.0  0.72500  0.36500  0.55900  1.0000
  O   O2        1.0  0.19400  0.13600  0.86000  1.0000
  O   O3        1.0  0.62900  0.82600  0.77300  1.0000
  O   O4        1.0  0.94600  0.67400  0.30300  1.0000
  O   O5        1.0  0.37100  0.17400  0.22700  1.0000
  O   O6        1.0  0.05390  0.32600  0.69700  1.0000
  O   O7        1.0  0.27500  0.63500  0.44100  1.0000
  O   O8        1.0  0.80600  0.86400  0.14000  1.0000
  Sr  Sr1       1.0  0.62400  0.25000  0.87400  1.0000
  Sr  Sr2       1.0  0.37600  0.75000  0.12600  1.0000
