data_image0
_chemical_formula_structural       F18Na2Th4
_chemical_formula_sum              "F18 Na2 Th4"
_cell_length_a       7.2232
_cell_length_b       7.2232
_cell_length_c       7.2232
_cell_angle_alpha    108.75
_cell_angle_beta     108.75
_cell_angle_gamma    110.923

_space_group_name_H-M_alt    "P 1"
_space_group_IT_number       1

loop_
  _space_group_symop_operation_xyz
  'x, y, z'

loop_
  _atom_site_type_symbol
  _atom_site_label
  _atom_site_symmetry_multiplicity
  _atom_site_fract_x
  _atom_site_fract_y
  _atom_site_fract_z
  _atom_site_occupancy
  F   F1        1.0  0.00000  0.23700  0.23700  1.0000
  F   F2        1.0  0.00000  0.76300  0.76300  1.0000
  F   F3        1.0  0.23700  0.00000  0.23700  1.0000
  F   F4        1.0  0.76300  0.00000  0.76300  1.0000
  F   F5        1.0  0.23900  0.23900  0.00000  1.0000
  F   F6        1.0  0.76100  0.76100  0.00000  1.0000
  F   F7        1.0  0.99500  0.26900  0.64900  1.0000
  F   F8        1.0  0.62000  0.34600  0.35100  1.0000
  F   F9        1.0  0.00489  0.65400  0.27400  1.0000
  F   F10       1.0  0.38000  0.73100  0.72600  1.0000
  F   F11       1.0  0.26900  0.99500  0.64900  1.0000
  F   F12       1.0  0.34600  0.62000  0.35100  1.0000
  F   F13       1.0  0.65400  0.00489  0.27400  1.0000
  F   F14       1.0  0.73100  0.38000  0.72600  1.0000
  F   F15       1.0  0.72100  0.72100  0.38800  1.0000
  F   F16       1.0  0.33300  0.33300  0.61200  1.0000
  F   F17       1.0  0.27900  0.66700  0.00000  1.0000
  F   F18       1.0  0.66700  0.27900  0.00000  1.0000
  Na  Na1       1.0  0.50000  0.00000  0.50000  1.0000
  Na  Na2       1.0  0.00000  0.50000  0.50000  1.0000
  Th  Th1       1.0  0.98600  0.98600  0.37900  1.0000
  Th  Th2       1.0  0.60800  0.60800  0.62100  1.0000
  Th  Th3       1.0  0.01370  0.39200  0.00000  1.0000
  Th  Th4       1.0  0.39200  0.01370  0.00000  1.0000
