data_image0
_chemical_formula_structural       O16S4Sn4
_chemical_formula_sum              "O16 S4 Sn4"
_cell_length_a       8.25981
_cell_length_b       5.1993
_cell_length_c       6.75702
_cell_angle_alpha    89.9988
_cell_angle_beta     89.9913
_cell_angle_gamma    89.5217

_space_group_name_H-M_alt    "P 1"
_space_group_IT_number       1

loop_
  _space_group_symop_operation_xyz
  'x, y, z'

loop_
  _atom_site_type_symbol
  _atom_site_label
  _atom_site_symmetry_multiplicity
  _atom_site_fract_x
  _atom_site_fract_y
  _atom_site_fract_z
  _atom_site_occupancy
  O   O1        1.0  0.91600  0.52600  0.18300  1.0000
  O   O2        1.0  0.58400  0.47400  0.68300  1.0000
  O   O3        1.0  0.08410  0.47400  0.81700  1.0000
  O   O4        1.0  0.41600  0.52600  0.31700  1.0000
  O   O5        1.0  0.92300  0.99200  0.19100  1.0000
  O   O6        1.0  0.57700  0.00782  0.69100  1.0000
  O   O7        1.0  0.07650  0.00788  0.80900  1.0000
  O   O8        1.0  0.42300  0.99200  0.30900  1.0000
  O   O9        1.0  0.79700  0.75800  0.45700  1.0000
  O   O10       1.0  0.70300  0.24200  0.95700  1.0000
  O   O11       1.0  0.20300  0.24200  0.54300  1.0000
  O   O12       1.0  0.29700  0.75800  0.04320  1.0000
  O   O13       1.0  0.09310  0.74100  0.41300  1.0000
  O   O14       1.0  0.40700  0.25900  0.91300  1.0000
  O   O15       1.0  0.90700  0.25900  0.58700  1.0000
  O   O16       1.0  0.59300  0.74100  0.08730  1.0000
  S   S1        1.0  0.93500  0.75500  0.31500  1.0000
  S   S2        1.0  0.56500  0.24500  0.81500  1.0000
  S   S3        1.0  0.06520  0.24500  0.68500  1.0000
  S   S4        1.0  0.43500  0.75500  0.18500  1.0000
  Sn  Sn1       1.0  0.30700  0.74000  0.67600  1.0000
  Sn  Sn2       1.0  0.19300  0.26000  0.17600  1.0000
  Sn  Sn3       1.0  0.69300  0.26000  0.32400  1.0000
  Sn  Sn4       1.0  0.80700  0.74000  0.82400  1.0000
