data_image0
_chemical_formula_structural       Ca4Mn2O12Sb2
_chemical_formula_sum              "Ca4 Mn2 O12 Sb2"
_cell_length_a       5.49166
_cell_length_b       7.62638
_cell_length_c       5.59788
_cell_angle_alpha    90
_cell_angle_beta     92.6421
_cell_angle_gamma    90

_space_group_name_H-M_alt    "P 1"
_space_group_IT_number       1

loop_
  _space_group_symop_operation_xyz
  'x, y, z'

loop_
  _atom_site_type_symbol
  _atom_site_label
  _atom_site_symmetry_multiplicity
  _atom_site_fract_x
  _atom_site_fract_y
  _atom_site_fract_z
  _atom_site_occupancy
  Ca  Ca1       1.0  0.48000  0.25000  0.43800  1.0000
  Ca  Ca2       1.0  0.52000  0.75000  0.56200  1.0000
  Ca  Ca3       1.0  0.00000  0.25000  0.95800  1.0000
  Ca  Ca4       1.0  0.00010  0.75000  0.04180  1.0000
  Mn  Mn1       1.0  0.50000  0.00001  0.00001  1.0000
  Mn  Mn2       1.0  0.50000  0.50000  0.00001  1.0000
  O   O1        1.0  0.30000  0.05130  0.70400  1.0000
  O   O2        1.0  0.70000  0.55100  0.29600  1.0000
  O   O3        1.0  0.70000  0.94900  0.29600  1.0000
  O   O4        1.0  0.30000  0.44900  0.70400  1.0000
  O   O5        1.0  0.18500  0.05160  0.21700  1.0000
  O   O6        1.0  0.81500  0.55200  0.78300  1.0000
  O   O7        1.0  0.81500  0.94800  0.78300  1.0000
  O   O8        1.0  0.18500  0.44800  0.21700  1.0000
  O   O9        1.0  0.58700  0.25000  0.03440  1.0000
  O   O10       1.0  0.41300  0.75000  0.96600  1.0000
  O   O11       1.0  0.89200  0.25000  0.53800  1.0000
  O   O12       1.0  0.10800  0.75000  0.46200  1.0000
  Sb  Sb1       1.0  0.00002  0.00003  0.50000  1.0000
  Sb  Sb2       1.0  0.00002  0.50000  0.50000  1.0000
