data_image0
_chemical_formula_structural       Ca4Mn2O12Ta2
_chemical_formula_sum              "Ca4 Mn2 O12 Ta2"
_cell_length_a       5.42984
_cell_length_b       7.62303
_cell_length_c       5.62759
_cell_angle_alpha    90
_cell_angle_beta     87.3438
_cell_angle_gamma    90

_space_group_name_H-M_alt    "P 1"
_space_group_IT_number       1

loop_
  _space_group_symop_operation_xyz
  'x, y, z'

loop_
  _atom_site_type_symbol
  _atom_site_label
  _atom_site_symmetry_multiplicity
  _atom_site_fract_x
  _atom_site_fract_y
  _atom_site_fract_z
  _atom_site_occupancy
  Ca  Ca1       1.0  0.49100  0.25000  0.43400  1.0000
  Ca  Ca2       1.0  0.50900  0.75000  0.56600  1.0000
  Ca  Ca3       1.0  0.01650  0.25000  0.95300  1.0000
  Ca  Ca4       1.0  0.98400  0.75000  0.04730  1.0000
  Mn  Mn1       1.0  0.50000  0.00000  1.00000  1.0000
  Mn  Mn2       1.0  0.50000  0.50000  1.00000  1.0000
  O   O1        1.0  0.28600  0.04910  0.68900  1.0000
  O   O2        1.0  0.71400  0.54900  0.31100  1.0000
  O   O3        1.0  0.71400  0.95100  0.31100  1.0000
  O   O4        1.0  0.28600  0.45100  0.68900  1.0000
  O   O5        1.0  0.20100  0.05020  0.20300  1.0000
  O   O6        1.0  0.79900  0.55000  0.79700  1.0000
  O   O7        1.0  0.79900  0.95000  0.79700  1.0000
  O   O8        1.0  0.20100  0.45000  0.20300  1.0000
  O   O9        1.0  0.59500  0.25000  0.02580  1.0000
  O   O10       1.0  0.40500  0.75000  0.97400  1.0000
  O   O11       1.0  0.89900  0.25000  0.53100  1.0000
  O   O12       1.0  0.10100  0.75000  0.46900  1.0000
  Ta  Ta1       1.0  0.00000  0.00000  0.50000  1.0000
  Ta  Ta2       1.0  0.00000  0.50000  0.50000  1.0000
