data_image0
_chemical_formula_structural       B8H40Li8N8
_chemical_formula_sum              "B8 H40 Li8 N8"
_cell_length_a       6.69841
_cell_length_b       13.0804
_cell_length_c       4.99172
_cell_angle_alpha    90
_cell_angle_beta     90
_cell_angle_gamma    90

_space_group_name_H-M_alt    "P 1"
_space_group_IT_number       1

loop_
  _space_group_symop_operation_xyz
  'x, y, z'

loop_
  _atom_site_type_symbol
  _atom_site_label
  _atom_site_symmetry_multiplicity
  _atom_site_fract_x
  _atom_site_fract_y
  _atom_site_fract_z
  _atom_site_occupancy
  B   B1        1.0  0.09130  0.14900  0.95800  1.0000
  B   B2        1.0  0.40900  0.85100  0.45800  1.0000
  B   B3        1.0  0.59100  0.35100  0.04200  1.0000
  B   B4        1.0  0.90900  0.64900  0.54200  1.0000
  B   B5        1.0  0.90900  0.85100  0.04200  1.0000
  B   B6        1.0  0.59100  0.14900  0.54200  1.0000
  B   B7        1.0  0.40900  0.64900  0.95800  1.0000
  B   B8        1.0  0.09130  0.35100  0.45800  1.0000
  H   H1        1.0  0.18700  0.22600  0.90200  1.0000
  H   H2        1.0  0.31300  0.77400  0.40200  1.0000
  H   H3        1.0  0.68700  0.27400  0.09810  1.0000
  H   H4        1.0  0.81300  0.72600  0.59800  1.0000
  H   H5        1.0  0.81300  0.77400  0.09810  1.0000
  H   H6        1.0  0.68700  0.22600  0.59800  1.0000
  H   H7        1.0  0.31300  0.72600  0.90200  1.0000
  H   H8        1.0  0.18700  0.27400  0.40200  1.0000
  H   H9        1.0  0.92500  0.17700  0.03750  1.0000
  H   H10       1.0  0.57500  0.82300  0.53800  1.0000
  H   H11       1.0  0.42500  0.32300  0.96200  1.0000
  H   H12       1.0  0.07480  0.67700  0.46200  1.0000
  H   H13       1.0  0.07480  0.82300  0.96200  1.0000
  H   H14       1.0  0.42500  0.17700  0.46200  1.0000
  H   H15       1.0  0.57500  0.67700  0.03750  1.0000
  H   H16       1.0  0.92500  0.32300  0.53800  1.0000
  H   H17       1.0  0.17600  0.10800  0.15300  1.0000
  H   H18       1.0  0.32400  0.89200  0.65300  1.0000
  H   H19       1.0  0.67600  0.39200  0.84700  1.0000
  H   H20       1.0  0.82400  0.60800  0.34700  1.0000
  H   H21       1.0  0.82400  0.89200  0.84700  1.0000
  H   H22       1.0  0.67600  0.10800  0.34700  1.0000
  H   H23       1.0  0.32400  0.60800  0.15300  1.0000
  H   H24       1.0  0.17600  0.39200  0.65300  1.0000
  H   H25       1.0  0.19900  0.05890  0.63200  1.0000
  H   H26       1.0  0.30100  0.94100  0.13200  1.0000
  H   H27       1.0  0.69900  0.44100  0.36800  1.0000
  H   H28       1.0  0.80100  0.55900  0.86800  1.0000
  H   H29       1.0  0.80100  0.94100  0.36800  1.0000
  H   H30       1.0  0.69900  0.05890  0.86800  1.0000
  H   H31       1.0  0.30100  0.55900  0.63200  1.0000
  H   H32       1.0  0.19900  0.44100  0.13200  1.0000
  H   H33       1.0  0.98800  0.01600  0.74400  1.0000
  H   H34       1.0  0.51200  0.98400  0.24400  1.0000
  H   H35       1.0  0.48800  0.48400  0.25600  1.0000
  H   H36       1.0  0.01200  0.51600  0.75600  1.0000
  H   H37       1.0  0.01200  0.98400  0.25600  1.0000
  H   H38       1.0  0.48800  0.01600  0.75600  1.0000
  H   H39       1.0  0.51200  0.51600  0.74400  1.0000
  H   H40       1.0  0.98800  0.48400  0.24400  1.0000
  Li  Li1       1.0  0.94400  0.17400  0.42300  1.0000
  Li  Li2       1.0  0.55600  0.82600  0.92300  1.0000
  Li  Li3       1.0  0.44400  0.32600  0.57700  1.0000
  Li  Li4       1.0  0.05600  0.67400  0.07710  1.0000
  Li  Li5       1.0  0.05600  0.82600  0.57700  1.0000
  Li  Li6       1.0  0.44400  0.17400  0.07710  1.0000
  Li  Li7       1.0  0.55600  0.67400  0.42300  1.0000
  Li  Li8       1.0  0.94400  0.32600  0.92300  1.0000
  N   N1        1.0  0.06470  0.08230  0.70700  1.0000
  N   N2        1.0  0.43500  0.91800  0.20700  1.0000
  N   N3        1.0  0.56500  0.41800  0.29300  1.0000
  N   N4        1.0  0.93500  0.58200  0.79300  1.0000
  N   N5        1.0  0.93500  0.91800  0.29300  1.0000
  N   N6        1.0  0.56500  0.08230  0.79300  1.0000
  N   N7        1.0  0.43500  0.58200  0.70700  1.0000
  N   N8        1.0  0.06470  0.41800  0.20700  1.0000
