data_image0
_chemical_formula_structural       B20H80Li4Zn8
_chemical_formula_sum              "B20 H80 Li4 Zn8"
_cell_length_a       9.52079
_cell_length_b       9.52079
_cell_length_c       15.0333
_cell_angle_alpha    90
_cell_angle_beta     90
_cell_angle_gamma    51.7317

_space_group_name_H-M_alt    "P 1"
_space_group_IT_number       1

loop_
  _space_group_symop_operation_xyz
  'x, y, z'

loop_
  _atom_site_type_symbol
  _atom_site_label
  _atom_site_symmetry_multiplicity
  _atom_site_fract_x
  _atom_site_fract_y
  _atom_site_fract_z
  _atom_site_occupancy
  B   B1        1.0  0.61500  0.14300  0.59500  1.0000
  B   B2        1.0  0.88500  0.35700  0.09470  1.0000
  B   B3        1.0  0.85700  0.38500  0.40500  1.0000
  B   B4        1.0  0.64300  0.11500  0.90500  1.0000
  B   B5        1.0  0.38500  0.85700  0.40500  1.0000
  B   B6        1.0  0.11500  0.64300  0.90500  1.0000
  B   B7        1.0  0.14300  0.61500  0.59500  1.0000
  B   B8        1.0  0.35700  0.88500  0.09470  1.0000
  B   B9        1.0  0.35800  0.35800  0.09880  1.0000
  B   B10       1.0  0.14200  0.14200  0.59900  1.0000
  B   B11       1.0  0.64200  0.64200  0.90100  1.0000
  B   B12       1.0  0.85800  0.85800  0.40100  1.0000
  B   B13       1.0  0.54200  0.54200  0.68000  1.0000
  B   B14       1.0  0.95800  0.95800  0.18000  1.0000
  B   B15       1.0  0.45800  0.45800  0.32000  1.0000
  B   B16       1.0  0.04210  0.04210  0.82000  1.0000
  B   B17       1.0  0.25100  0.25100  0.33300  1.0000
  B   B18       1.0  0.24900  0.24900  0.83300  1.0000
  B   B19       1.0  0.74900  0.74900  0.66700  1.0000
  B   B20       1.0  0.75100  0.75100  0.16700  1.0000
  H   H1        1.0  0.53500  0.53500  0.59800  1.0000
  H   H2        1.0  0.96500  0.96500  0.09850  1.0000
  H   H3        1.0  0.46500  0.46500  0.40200  1.0000
  H   H4        1.0  0.03460  0.03460  0.90200  1.0000
  H   H5        1.0  0.70400  0.44800  0.69700  1.0000
  H   H6        1.0  0.79600  0.05210  0.19700  1.0000
  H   H7        1.0  0.55200  0.29600  0.30300  1.0000
  H   H8        1.0  0.94800  0.20400  0.80300  1.0000
  H   H9        1.0  0.29600  0.55200  0.30300  1.0000
  H   H10       1.0  0.20400  0.94800  0.80300  1.0000
  H   H11       1.0  0.44800  0.70400  0.69700  1.0000
  H   H12       1.0  0.05210  0.79600  0.19700  1.0000
  H   H13       1.0  0.26800  0.26800  0.41100  1.0000
  H   H14       1.0  0.23200  0.23200  0.91100  1.0000
  H   H15       1.0  0.73200  0.73200  0.58900  1.0000
  H   H16       1.0  0.76800  0.76800  0.08860  1.0000
  H   H17       1.0  0.40700  0.15000  0.30000  1.0000
  H   H18       1.0  0.09280  0.35000  0.80000  1.0000
  H   H19       1.0  0.85000  0.59300  0.70000  1.0000
  H   H20       1.0  0.65000  0.90700  0.20000  1.0000
  H   H21       1.0  0.59300  0.85000  0.70000  1.0000
  H   H22       1.0  0.90700  0.65000  0.20000  1.0000
  H   H23       1.0  0.15000  0.40700  0.30000  1.0000
  H   H24       1.0  0.35000  0.09280  0.80000  1.0000
  H   H25       1.0  0.54000  0.20100  0.66900  1.0000
  H   H26       1.0  0.96000  0.29900  0.16900  1.0000
  H   H27       1.0  0.79900  0.46000  0.33100  1.0000
  H   H28       1.0  0.70100  0.03960  0.83100  1.0000
  H   H29       1.0  0.46000  0.79900  0.33100  1.0000
  H   H30       1.0  0.03960  0.70100  0.83100  1.0000
  H   H31       1.0  0.20100  0.54000  0.66900  1.0000
  H   H32       1.0  0.29900  0.96000  0.16900  1.0000
  H   H33       1.0  0.18300  0.18300  0.31100  1.0000
  H   H34       1.0  0.31700  0.31700  0.81100  1.0000
  H   H35       1.0  0.81700  0.81700  0.68900  1.0000
  H   H36       1.0  0.68300  0.68300  0.18900  1.0000
  H   H37       1.0  0.48600  0.23600  0.05810  1.0000
  H   H38       1.0  0.01390  0.26400  0.55800  1.0000
  H   H39       1.0  0.76400  0.51400  0.94200  1.0000
  H   H40       1.0  0.73600  0.98600  0.44200  1.0000
  H   H41       1.0  0.51400  0.76400  0.94200  1.0000
  H   H42       1.0  0.98600  0.73600  0.44200  1.0000
  H   H43       1.0  0.23600  0.48600  0.05810  1.0000
  H   H44       1.0  0.26400  0.01390  0.55800  1.0000
  H   H45       1.0  0.48300  0.48300  0.72800  1.0000
  H   H46       1.0  0.01670  0.01670  0.22800  1.0000
  H   H47       1.0  0.51700  0.51700  0.27200  1.0000
  H   H48       1.0  0.98300  0.98300  0.77200  1.0000
  H   H49       1.0  0.29200  0.29200  0.13600  1.0000
  H   H50       1.0  0.20800  0.20800  0.63600  1.0000
  H   H51       1.0  0.70800  0.70800  0.86400  1.0000
  H   H52       1.0  0.79200  0.79200  0.36400  1.0000
  H   H53       1.0  0.41700  0.41700  0.14600  1.0000
  H   H54       1.0  0.08260  0.08260  0.64600  1.0000
  H   H55       1.0  0.58300  0.58300  0.85400  1.0000
  H   H56       1.0  0.91700  0.91700  0.35400  1.0000
  H   H57       1.0  0.77300  0.06960  0.60800  1.0000
  H   H58       1.0  0.72700  0.43000  0.10800  1.0000
  H   H59       1.0  0.93000  0.22700  0.39200  1.0000
  H   H60       1.0  0.57000  0.27300  0.89200  1.0000
  H   H61       1.0  0.22700  0.93000  0.39200  1.0000
  H   H62       1.0  0.27300  0.57000  0.89200  1.0000
  H   H63       1.0  0.06960  0.77300  0.60800  1.0000
  H   H64       1.0  0.43000  0.72700  0.10800  1.0000
  H   H65       1.0  0.56700  0.25900  0.53600  1.0000
  H   H66       1.0  0.93300  0.24100  0.03590  1.0000
  H   H67       1.0  0.74100  0.43300  0.46400  1.0000
  H   H68       1.0  0.75900  0.06690  0.96400  1.0000
  H   H69       1.0  0.43300  0.74100  0.46400  1.0000
  H   H70       1.0  0.06690  0.75900  0.96400  1.0000
  H   H71       1.0  0.25900  0.56700  0.53600  1.0000
  H   H72       1.0  0.24100  0.93300  0.03590  1.0000
  H   H73       1.0  0.57200  0.05570  0.56700  1.0000
  H   H74       1.0  0.92800  0.44400  0.06680  1.0000
  H   H75       1.0  0.94400  0.42800  0.43300  1.0000
  H   H76       1.0  0.55600  0.07200  0.93300  1.0000
  H   H77       1.0  0.42800  0.94400  0.43300  1.0000
  H   H78       1.0  0.07200  0.55600  0.93300  1.0000
  H   H79       1.0  0.05570  0.57200  0.56700  1.0000
  H   H80       1.0  0.44400  0.92800  0.06680  1.0000
  Li  Li1       1.0  0.15700  0.15700  0.44400  1.0000
  Li  Li2       1.0  0.34300  0.34300  0.94400  1.0000
  Li  Li3       1.0  0.84300  0.84300  0.55600  1.0000
  Li  Li4       1.0  0.65700  0.65700  0.05600  1.0000
  Zn  Zn1       1.0  0.42300  0.42300  0.62200  1.0000
  Zn  Zn2       1.0  0.07670  0.07670  0.12200  1.0000
  Zn  Zn3       1.0  0.57700  0.57700  0.37800  1.0000
  Zn  Zn4       1.0  0.92300  0.92300  0.87800  1.0000
  Zn  Zn5       1.0  0.65300  0.65300  0.75900  1.0000
  Zn  Zn6       1.0  0.84700  0.84700  0.25900  1.0000
  Zn  Zn7       1.0  0.34700  0.34700  0.24100  1.0000
  Zn  Zn8       1.0  0.15300  0.15300  0.74100  1.0000
