data_image0
_chemical_formula_structural       Fe16Si7U6
_chemical_formula_sum              "Fe16 Si7 U6"
_cell_length_a       8.14683
_cell_length_b       8.14683
_cell_length_c       8.14683
_cell_angle_alpha    60
_cell_angle_beta     60
_cell_angle_gamma    60

_space_group_name_H-M_alt    "P 1"
_space_group_IT_number       1

loop_
  _space_group_symop_operation_xyz
  'x, y, z'

loop_
  _atom_site_type_symbol
  _atom_site_label
  _atom_site_symmetry_multiplicity
  _atom_site_fract_x
  _atom_site_fract_y
  _atom_site_fract_z
  _atom_site_occupancy
  Fe  Fe1       1.0  0.33100  0.33100  0.33100  1.0000
  Fe  Fe2       1.0  0.33100  0.33100  0.00763  1.0000
  Fe  Fe3       1.0  0.00763  0.33100  0.33100  1.0000
  Fe  Fe4       1.0  0.33100  0.00763  0.33100  1.0000
  Fe  Fe5       1.0  0.66900  0.66900  0.66900  1.0000
  Fe  Fe6       1.0  0.66900  0.66900  0.99200  1.0000
  Fe  Fe7       1.0  0.66900  0.99200  0.66900  1.0000
  Fe  Fe8       1.0  0.99200  0.66900  0.66900  1.0000
  Fe  Fe9       1.0  0.12200  0.12200  0.12200  1.0000
  Fe  Fe10      1.0  0.12200  0.12200  0.63600  1.0000
  Fe  Fe11      1.0  0.63600  0.12200  0.12200  1.0000
  Fe  Fe12      1.0  0.12200  0.63600  0.12200  1.0000
  Fe  Fe13      1.0  0.87800  0.87800  0.87800  1.0000
  Fe  Fe14      1.0  0.87800  0.87800  0.36400  1.0000
  Fe  Fe15      1.0  0.87800  0.36400  0.87800  1.0000
  Fe  Fe16      1.0  0.36400  0.87800  0.87800  1.0000
  Si  Si1       1.0  0.50000  0.00000  0.00000  1.0000
  Si  Si2       1.0  0.00000  0.50000  0.50000  1.0000
  Si  Si3       1.0  0.00000  0.50000  0.00000  1.0000
  Si  Si4       1.0  0.00000  0.00000  0.50000  1.0000
  Si  Si5       1.0  0.50000  0.00000  0.50000  1.0000
  Si  Si6       1.0  0.50000  0.50000  0.00000  1.0000
  Si  Si7       1.0  0.00000  0.00000  0.00000  1.0000
  U   U1        1.0  0.71700  0.28300  0.28300  1.0000
  U   U2        1.0  0.28300  0.71700  0.71700  1.0000
  U   U3        1.0  0.28300  0.71700  0.28300  1.0000
  U   U4        1.0  0.28300  0.28300  0.71700  1.0000
  U   U5        1.0  0.71700  0.28300  0.71700  1.0000
  U   U6        1.0  0.71700  0.71700  0.28300  1.0000
