data_image0
_chemical_formula_structural       B4Cu4O12Sr2
_chemical_formula_sum              "B4 Cu4 O12 Sr2"
_cell_length_a       7.06623
_cell_length_b       7.06623
_cell_length_c       7.06623
_cell_angle_alpha    101.097
_cell_angle_beta     101.097
_cell_angle_gamma    127.956

_space_group_name_H-M_alt    "P 1"
_space_group_IT_number       1

loop_
  _space_group_symop_operation_xyz
  'x, y, z'

loop_
  _atom_site_type_symbol
  _atom_site_label
  _atom_site_symmetry_multiplicity
  _atom_site_fract_x
  _atom_site_fract_y
  _atom_site_fract_z
  _atom_site_occupancy
  B   B1        1.0  0.53900  0.53900  0.59300  1.0000
  B   B2        1.0  0.94600  0.94600  0.40700  1.0000
  B   B3        1.0  0.46100  0.05380  0.00000  1.0000
  B   B4        1.0  0.05380  0.46100  0.00000  1.0000
  Cu  Cu1       1.0  0.38500  0.38500  0.23100  1.0000
  Cu  Cu2       1.0  0.15400  0.15400  0.76900  1.0000
  Cu  Cu3       1.0  0.61500  0.84600  0.00000  1.0000
  Cu  Cu4       1.0  0.84600  0.61500  0.00000  1.0000
  O   O1        1.0  0.62600  0.62600  0.80600  1.0000
  O   O2        1.0  0.81900  0.81900  0.19400  1.0000
  O   O3        1.0  0.37400  0.18100  0.00000  1.0000
  O   O4        1.0  0.18100  0.37400  0.00000  1.0000
  O   O5        1.0  0.39800  0.58100  0.47500  1.0000
  O   O6        1.0  0.10500  0.92300  0.52500  1.0000
  O   O7        1.0  0.60200  0.07700  0.18200  1.0000
  O   O8        1.0  0.89500  0.41900  0.81800  1.0000
  O   O9        1.0  0.58100  0.39800  0.47500  1.0000
  O   O10       1.0  0.92300  0.10500  0.52500  1.0000
  O   O11       1.0  0.07700  0.60200  0.18200  1.0000
  O   O12       1.0  0.41900  0.89500  0.81800  1.0000
  Sr  Sr1       1.0  0.50000  0.00000  0.50000  1.0000
  Sr  Sr2       1.0  0.00000  0.50000  0.50000  1.0000
