data_image0
_chemical_formula_structural       C8La16P8
_chemical_formula_sum              "C8 La16 P8"
_cell_length_a       8.90914
_cell_length_b       8.88238
_cell_length_c       9.04491
_cell_angle_alpha    89.872
_cell_angle_beta     89.7974
_cell_angle_gamma    90.2867

_space_group_name_H-M_alt    "P 1"
_space_group_IT_number       1

loop_
  _space_group_symop_operation_xyz
  'x, y, z'

loop_
  _atom_site_type_symbol
  _atom_site_label
  _atom_site_symmetry_multiplicity
  _atom_site_fract_x
  _atom_site_fract_y
  _atom_site_fract_z
  _atom_site_occupancy
  C   C1        1.0  0.99200  0.74800  0.20000  1.0000
  C   C2        1.0  0.45000  0.97800  0.25100  1.0000
  C   C3        1.0  0.75200  0.94800  0.51600  1.0000
  C   C4        1.0  0.29800  0.99800  0.24700  1.0000
  C   C5        1.0  0.02450  0.74600  0.05200  1.0000
  C   C6        1.0  0.72500  0.79700  0.50500  1.0000
  C   C7        1.0  0.47800  0.24700  0.55100  1.0000
  C   C8        1.0  0.50200  0.25000  0.69900  1.0000
  La  La1       1.0  0.80800  0.82200  0.79300  1.0000
  La  La2       1.0  0.94100  0.57100  0.43900  1.0000
  La  La3       1.0  0.32700  0.29100  0.30800  1.0000
  La  La4       1.0  0.17900  0.68900  0.81600  1.0000
  La  La5       1.0  0.43200  0.06380  0.95500  1.0000
  La  La6       1.0  0.56200  0.43300  0.93100  1.0000
  La  La7       1.0  0.69200  0.18600  0.31000  1.0000
  La  La8       1.0  0.69600  0.82300  0.20800  1.0000
  La  La9       1.0  0.04890  0.93800  0.43700  1.0000
  La  La10      1.0  0.79400  0.18900  0.67600  1.0000
  La  La11      1.0  0.93800  0.45800  0.07080  1.0000
  La  La12      1.0  0.44600  0.94400  0.55100  1.0000
  La  La13      1.0  0.20500  0.31500  0.67900  1.0000
  La  La14      1.0  0.06160  0.04230  0.07030  1.0000
  La  La15      1.0  0.57200  0.54800  0.55900  1.0000
  La  La16      1.0  0.30500  0.70200  0.18600  1.0000
  P   P1        1.0  0.00516  0.25900  0.37500  1.0000
  P   P2        1.0  0.24500  0.37700  0.00016  1.0000
  P   P3        1.0  0.62800  0.50100  0.24200  1.0000
  P   P4        1.0  0.87900  0.49900  0.75400  1.0000
  P   P5        1.0  0.75500  0.12800  0.99800  1.0000
  P   P6        1.0  0.50100  0.75400  0.87400  1.0000
  P   P7        1.0  0.12400  0.00574  0.74700  1.0000
  P   P8        1.0  0.25900  0.62500  0.50000  1.0000
