data_image0
_chemical_formula_structural       F16K6Ta2
_chemical_formula_sum              "F16 K6 Ta2"
_cell_length_a       7.76717
_cell_length_b       7.76717
_cell_length_c       5.81328
_cell_angle_alpha    90
_cell_angle_beta     90
_cell_angle_gamma    120.058

_space_group_name_H-M_alt    "P 1"
_space_group_IT_number       1

loop_
  _space_group_symop_operation_xyz
  'x, y, z'

loop_
  _atom_site_type_symbol
  _atom_site_label
  _atom_site_symmetry_multiplicity
  _atom_site_fract_x
  _atom_site_fract_y
  _atom_site_fract_z
  _atom_site_occupancy
  F   F1        1.0  0.00002  0.00000  0.00226  1.0000
  F   F2        1.0  0.00000  0.00002  0.50200  1.0000
  F   F3        1.0  0.44600  0.55400  0.52100  1.0000
  F   F4        1.0  0.55400  0.44600  0.02110  1.0000
  F   F5        1.0  0.44700  0.89300  0.52100  1.0000
  F   F6        1.0  0.10700  0.55300  0.52100  1.0000
  F   F7        1.0  0.89300  0.44700  0.02120  1.0000
  F   F8        1.0  0.55300  0.10700  0.02120  1.0000
  F   F9        1.0  0.33300  0.66700  0.07700  1.0000
  F   F10       1.0  0.66700  0.33300  0.57700  1.0000
  F   F11       1.0  0.19400  0.80600  0.82100  1.0000
  F   F12       1.0  0.80600  0.19400  0.32100  1.0000
  F   F13       1.0  0.19400  0.38900  0.82100  1.0000
  F   F14       1.0  0.61100  0.80600  0.82100  1.0000
  F   F15       1.0  0.38900  0.19400  0.32100  1.0000
  F   F16       1.0  0.80600  0.61100  0.32100  1.0000
  K   K1        1.0  0.15600  0.31200  0.24700  1.0000
  K   K2        1.0  0.84400  0.68800  0.74700  1.0000
  K   K3        1.0  0.68800  0.84400  0.24700  1.0000
  K   K4        1.0  0.15600  0.84400  0.24700  1.0000
  K   K5        1.0  0.84400  0.15600  0.74700  1.0000
  K   K6        1.0  0.31200  0.15600  0.74700  1.0000
  Ta  Ta1       1.0  0.33300  0.66700  0.74000  1.0000
  Ta  Ta2       1.0  0.66700  0.33300  0.24000  1.0000
