data_image0
_chemical_formula_structural       C4F8N4O8P4
_chemical_formula_sum              "C4 F8 N4 O8 P4"
_cell_length_a       8.51947
_cell_length_b       8.51947
_cell_length_c       8.51947
_cell_angle_alpha    94.0528
_cell_angle_beta     94.0528
_cell_angle_gamma    149.165

_space_group_name_H-M_alt    "P 1"
_space_group_IT_number       1

loop_
  _space_group_symop_operation_xyz
  'x, y, z'

loop_
  _atom_site_type_symbol
  _atom_site_label
  _atom_site_symmetry_multiplicity
  _atom_site_fract_x
  _atom_site_fract_y
  _atom_site_fract_z
  _atom_site_occupancy
  C   C1        1.0  0.13200  0.60500  0.73000  1.0000
  C   C2        1.0  0.87500  0.40200  0.27000  1.0000
  C   C3        1.0  0.39500  0.12500  0.52700  1.0000
  C   C4        1.0  0.59800  0.86800  0.47300  1.0000
  F   F1        1.0  0.60400  0.77800  0.03240  1.0000
  F   F2        1.0  0.74600  0.57100  0.96800  1.0000
  F   F3        1.0  0.22200  0.25400  0.82500  1.0000
  F   F4        1.0  0.42900  0.39600  0.17500  1.0000
  F   F5        1.0  0.06650  0.31800  0.03510  1.0000
  F   F6        1.0  0.28300  0.03130  0.96500  1.0000
  F   F7        1.0  0.68200  0.71700  0.74900  1.0000
  F   F8        1.0  0.96900  0.93400  0.25100  1.0000
  N   N1        1.0  0.24900  0.59600  0.81000  1.0000
  N   N2        1.0  0.78700  0.43900  0.19000  1.0000
  N   N3        1.0  0.40400  0.21300  0.65300  1.0000
  N   N4        1.0  0.56100  0.75100  0.34700  1.0000
  O   O1        1.0  0.36900  0.83200  0.11400  1.0000
  O   O2        1.0  0.71800  0.25500  0.88600  1.0000
  O   O3        1.0  0.16800  0.28200  0.53700  1.0000
  O   O4        1.0  0.74500  0.63100  0.46300  1.0000
  O   O5        1.0  0.02950  0.61400  0.64300  1.0000
  O   O6        1.0  0.97100  0.38600  0.35700  1.0000
  O   O7        1.0  0.38600  0.02900  0.41500  1.0000
  O   O8        1.0  0.61400  0.97100  0.58500  1.0000
  P   P1        1.0  0.32000  0.64600  0.00459  1.0000
  P   P2        1.0  0.64200  0.31500  0.99500  1.0000
  P   P3        1.0  0.35400  0.35800  0.67300  1.0000
  P   P4        1.0  0.68500  0.68000  0.32700  1.0000
