data_image0
_chemical_formula_structural       B16H80K16N16
_chemical_formula_sum              "B16 H80 K16 N16"
_cell_length_a       9.02304
_cell_length_b       8.00599
_cell_length_c       16.5926
_cell_angle_alpha    90
_cell_angle_beta     90
_cell_angle_gamma    90

_space_group_name_H-M_alt    "P 1"
_space_group_IT_number       1

loop_
  _space_group_symop_operation_xyz
  'x, y, z'

loop_
  _atom_site_type_symbol
  _atom_site_label
  _atom_site_symmetry_multiplicity
  _atom_site_fract_x
  _atom_site_fract_y
  _atom_site_fract_z
  _atom_site_occupancy
  B   B1        1.0  0.03530  0.16300  0.72000  1.0000
  B   B2        1.0  0.46500  0.83700  0.22000  1.0000
  B   B3        1.0  0.53500  0.33700  0.28000  1.0000
  B   B4        1.0  0.96500  0.66300  0.78000  1.0000
  B   B5        1.0  0.96500  0.83700  0.28000  1.0000
  B   B6        1.0  0.53500  0.16300  0.78000  1.0000
  B   B7        1.0  0.46500  0.66300  0.72000  1.0000
  B   B8        1.0  0.03530  0.33700  0.22000  1.0000
  B   B9        1.0  0.31600  0.83800  0.47400  1.0000
  B   B10       1.0  0.18400  0.16200  0.97400  1.0000
  B   B11       1.0  0.81600  0.66200  0.52600  1.0000
  B   B12       1.0  0.68400  0.33800  0.02550  1.0000
  B   B13       1.0  0.68400  0.16200  0.52600  1.0000
  B   B14       1.0  0.81600  0.83800  0.02550  1.0000
  B   B15       1.0  0.18400  0.33800  0.47400  1.0000
  B   B16       1.0  0.31600  0.66200  0.97400  1.0000
  H   H1        1.0  0.21200  0.81800  0.42700  1.0000
  H   H2        1.0  0.28800  0.18200  0.92700  1.0000
  H   H3        1.0  0.71200  0.68200  0.57300  1.0000
  H   H4        1.0  0.78800  0.31800  0.07330  1.0000
  H   H5        1.0  0.78800  0.18200  0.57300  1.0000
  H   H6        1.0  0.71200  0.81800  0.07330  1.0000
  H   H7        1.0  0.28800  0.31800  0.42700  1.0000
  H   H8        1.0  0.21200  0.68200  0.92700  1.0000
  H   H9        1.0  0.38700  0.96300  0.45300  1.0000
  H   H10       1.0  0.11300  0.03660  0.95300  1.0000
  H   H11       1.0  0.88700  0.53700  0.54700  1.0000
  H   H12       1.0  0.61300  0.46300  0.04690  1.0000
  H   H13       1.0  0.61300  0.03660  0.54700  1.0000
  H   H14       1.0  0.88700  0.96300  0.04690  1.0000
  H   H15       1.0  0.11300  0.46300  0.45300  1.0000
  H   H16       1.0  0.38700  0.53700  0.95300  1.0000
  H   H17       1.0  0.05400  0.89700  0.71100  1.0000
  H   H18       1.0  0.44600  0.10300  0.21100  1.0000
  H   H19       1.0  0.55400  0.60300  0.28900  1.0000
  H   H20       1.0  0.94600  0.39700  0.78900  1.0000
  H   H21       1.0  0.94600  0.10300  0.28900  1.0000
  H   H22       1.0  0.55400  0.89700  0.78900  1.0000
  H   H23       1.0  0.44600  0.39700  0.71100  1.0000
  H   H24       1.0  0.05400  0.60300  0.21100  1.0000
  H   H25       1.0  0.08470  0.17000  0.78900  1.0000
  H   H26       1.0  0.41500  0.83000  0.28900  1.0000
  H   H27       1.0  0.58500  0.33000  0.21100  1.0000
  H   H28       1.0  0.91500  0.67000  0.71100  1.0000
  H   H29       1.0  0.91500  0.83000  0.21100  1.0000
  H   H30       1.0  0.58500  0.17000  0.71100  1.0000
  H   H31       1.0  0.41500  0.67000  0.78900  1.0000
  H   H32       1.0  0.08470  0.33000  0.28900  1.0000
  H   H33       1.0  0.04980  0.98300  0.62200  1.0000
  H   H34       1.0  0.45000  0.01730  0.12200  1.0000
  H   H35       1.0  0.55000  0.51700  0.37800  1.0000
  H   H36       1.0  0.95000  0.48300  0.87800  1.0000
  H   H37       1.0  0.95000  0.01730  0.37800  1.0000
  H   H38       1.0  0.55000  0.98300  0.87800  1.0000
  H   H39       1.0  0.45000  0.48300  0.62200  1.0000
  H   H40       1.0  0.04980  0.51700  0.12200  1.0000
  H   H41       1.0  0.50000  0.69200  0.51800  1.0000
  H   H42       1.0  0.00000  0.30800  0.01770  1.0000
  H   H43       1.0  0.00032  0.80800  0.48200  1.0000
  H   H44       1.0  0.50000  0.19200  0.98200  1.0000
  H   H45       1.0  0.50000  0.30800  0.48200  1.0000
  H   H46       1.0  0.00032  0.69200  0.98200  1.0000
  H   H47       1.0  0.00000  0.19200  0.51800  1.0000
  H   H48       1.0  0.50000  0.80800  0.01770  1.0000
  H   H49       1.0  0.36200  0.57400  0.49100  1.0000
  H   H50       1.0  0.13800  0.42600  0.99100  1.0000
  H   H51       1.0  0.86200  0.92600  0.50900  1.0000
  H   H52       1.0  0.63800  0.07390  0.00923  1.0000
  H   H53       1.0  0.63800  0.42600  0.50900  1.0000
  H   H54       1.0  0.86200  0.57400  0.00923  1.0000
  H   H55       1.0  0.13800  0.07390  0.49100  1.0000
  H   H56       1.0  0.36200  0.92600  0.99100  1.0000
  H   H57       1.0  0.07740  0.28800  0.68200  1.0000
  H   H58       1.0  0.42300  0.71200  0.18200  1.0000
  H   H59       1.0  0.57700  0.21200  0.31800  1.0000
  H   H60       1.0  0.92300  0.78800  0.81800  1.0000
  H   H61       1.0  0.92300  0.71200  0.31800  1.0000
  H   H62       1.0  0.57700  0.28800  0.81800  1.0000
  H   H63       1.0  0.42300  0.78800  0.68200  1.0000
  H   H64       1.0  0.07740  0.21200  0.18200  1.0000
  H   H65       1.0  0.89800  0.17700  0.72800  1.0000
  H   H66       1.0  0.60200  0.82300  0.22800  1.0000
  H   H67       1.0  0.39800  0.32300  0.27200  1.0000
  H   H68       1.0  0.10200  0.67700  0.77200  1.0000
  H   H69       1.0  0.10200  0.82300  0.27200  1.0000
  H   H70       1.0  0.39800  0.17700  0.77200  1.0000
  H   H71       1.0  0.60200  0.67700  0.72800  1.0000
  H   H72       1.0  0.89800  0.32300  0.22800  1.0000
  H   H73       1.0  0.25700  0.87700  0.53900  1.0000
  H   H74       1.0  0.24300  0.12300  0.03930  1.0000
  H   H75       1.0  0.75700  0.62300  0.46100  1.0000
  H   H76       1.0  0.74300  0.37700  0.96100  1.0000
  H   H77       1.0  0.74300  0.12300  0.46100  1.0000
  H   H78       1.0  0.75700  0.87700  0.96100  1.0000
  H   H79       1.0  0.24300  0.37700  0.53900  1.0000
  H   H80       1.0  0.25700  0.62300  0.03930  1.0000
  K   K1        1.0  0.24200  0.07710  0.32700  1.0000
  K   K2        1.0  0.25800  0.92300  0.82700  1.0000
  K   K3        1.0  0.74200  0.42300  0.67300  1.0000
  K   K4        1.0  0.75800  0.57700  0.17300  1.0000
  K   K5        1.0  0.75800  0.92300  0.67300  1.0000
  K   K6        1.0  0.74200  0.07710  0.17300  1.0000
  K   K7        1.0  0.25800  0.57700  0.32700  1.0000
  K   K8        1.0  0.24200  0.42300  0.82700  1.0000
  K   K9        1.0  0.35400  0.13300  0.61100  1.0000
  K   K10       1.0  0.14600  0.86700  0.11100  1.0000
  K   K11       1.0  0.85400  0.36700  0.38900  1.0000
  K   K12       1.0  0.64600  0.63300  0.88900  1.0000
  K   K13       1.0  0.64600  0.86700  0.38900  1.0000
  K   K14       1.0  0.85400  0.13300  0.88900  1.0000
  K   K15       1.0  0.14600  0.63300  0.61100  1.0000
  K   K16       1.0  0.35400  0.36700  0.11100  1.0000
  N   N1        1.0  0.08850  0.00077  0.68000  1.0000
  N   N2        1.0  0.41100  0.99900  0.18000  1.0000
  N   N3        1.0  0.58900  0.49900  0.32000  1.0000
  N   N4        1.0  0.91100  0.50100  0.82000  1.0000
  N   N5        1.0  0.91100  0.99900  0.32000  1.0000
  N   N6        1.0  0.58900  0.00077  0.82000  1.0000
  N   N7        1.0  0.41100  0.50100  0.68000  1.0000
  N   N8        1.0  0.08850  0.49900  0.18000  1.0000
  N   N9        1.0  0.41600  0.68300  0.47600  1.0000
  N   N10       1.0  0.08370  0.31700  0.97600  1.0000
  N   N11       1.0  0.91600  0.81700  0.52400  1.0000
  N   N12       1.0  0.58400  0.18300  0.02380  1.0000
  N   N13       1.0  0.58400  0.31700  0.52400  1.0000
  N   N14       1.0  0.91600  0.68300  0.02380  1.0000
  N   N15       1.0  0.08370  0.18300  0.47600  1.0000
  N   N16       1.0  0.41600  0.81700  0.97600  1.0000
