data_image0
_chemical_formula_structural       Mo8O28Rb8
_chemical_formula_sum              "Mo8 O28 Rb8"
_cell_length_a       11.4366
_cell_length_b       7.92308
_cell_length_c       7.92308
_cell_angle_alpha    103.167
_cell_angle_beta     90
_cell_angle_gamma    90

_space_group_name_H-M_alt    "P 1"
_space_group_IT_number       1

loop_
  _space_group_symop_operation_xyz
  'x, y, z'

loop_
  _atom_site_type_symbol
  _atom_site_label
  _atom_site_symmetry_multiplicity
  _atom_site_fract_x
  _atom_site_fract_y
  _atom_site_fract_z
  _atom_site_occupancy
  Mo  Mo1       1.0  0.01970  0.49700  0.97200  1.0000
  Mo  Mo2       1.0  0.98000  0.97200  0.49700  1.0000
  Mo  Mo3       1.0  0.48000  0.49700  0.97200  1.0000
  Mo  Mo4       1.0  0.52000  0.97200  0.49700  1.0000
  Mo  Mo5       1.0  0.25000  0.77000  0.80100  1.0000
  Mo  Mo6       1.0  0.75000  0.80100  0.77000  1.0000
  Mo  Mo7       1.0  0.00000  0.54400  0.54400  1.0000
  Mo  Mo8       1.0  0.50000  0.54400  0.54400  1.0000
  O   O1        1.0  0.03840  0.71200  0.09060  1.0000
  O   O2        1.0  0.96200  0.09060  0.71200  1.0000
  O   O3        1.0  0.46200  0.71200  0.09060  1.0000
  O   O4        1.0  0.53800  0.09060  0.71200  1.0000
  O   O5        1.0  0.11400  0.35600  0.04840  1.0000
  O   O6        1.0  0.88600  0.04840  0.35600  1.0000
  O   O7        1.0  0.38600  0.35600  0.04840  1.0000
  O   O8        1.0  0.61400  0.04840  0.35600  1.0000
  O   O9        1.0  0.87800  0.43300  0.01440  1.0000
  O   O10       1.0  0.12200  0.01440  0.43300  1.0000
  O   O11       1.0  0.62200  0.43300  0.01440  1.0000
  O   O12       1.0  0.37800  0.01440  0.43300  1.0000
  O   O13       1.0  0.25000  0.96600  0.96200  1.0000
  O   O14       1.0  0.75000  0.96200  0.96600  1.0000
  O   O15       1.0  0.25000  0.59200  0.89800  1.0000
  O   O16       1.0  0.75000  0.89800  0.59200  1.0000
  O   O17       1.0  0.11800  0.76900  0.67500  1.0000
  O   O18       1.0  0.88200  0.67500  0.76900  1.0000
  O   O19       1.0  0.38200  0.76900  0.67500  1.0000
  O   O20       1.0  0.61800  0.67500  0.76900  1.0000
  O   O21       1.0  0.05040  0.44400  0.73100  1.0000
  O   O22       1.0  0.95000  0.73100  0.44400  1.0000
  O   O23       1.0  0.45000  0.44400  0.73100  1.0000
  O   O24       1.0  0.55000  0.73100  0.44400  1.0000
  O   O25       1.0  0.11600  0.46700  0.40700  1.0000
  O   O26       1.0  0.88400  0.40700  0.46700  1.0000
  O   O27       1.0  0.38400  0.46700  0.40700  1.0000
  O   O28       1.0  0.61600  0.40700  0.46700  1.0000
  Rb  Rb1       1.0  0.25000  0.21700  0.72900  1.0000
  Rb  Rb2       1.0  0.75000  0.72900  0.21700  1.0000
  Rb  Rb3       1.0  0.25000  0.70900  0.27900  1.0000
  Rb  Rb4       1.0  0.75000  0.27900  0.70900  1.0000
  Rb  Rb5       1.0  0.25000  0.20600  0.25900  1.0000
  Rb  Rb6       1.0  0.75000  0.25900  0.20600  1.0000
  Rb  Rb7       1.0  0.00000  0.03300  0.03300  1.0000
  Rb  Rb8       1.0  0.50000  0.03300  0.03300  1.0000
