data_image0
_chemical_formula_structural       I8Li4O32V4
_chemical_formula_sum              "I8 Li4 O32 V4"
_cell_length_a       9.53524
_cell_length_b       4.89464
_cell_length_c       13.2721
_cell_angle_alpha    90
_cell_angle_beta     116.535
_cell_angle_gamma    90

_space_group_name_H-M_alt    "P 1"
_space_group_IT_number       1

loop_
  _space_group_symop_operation_xyz
  'x, y, z'

loop_
  _atom_site_type_symbol
  _atom_site_label
  _atom_site_symmetry_multiplicity
  _atom_site_fract_x
  _atom_site_fract_y
  _atom_site_fract_z
  _atom_site_occupancy
  I   I1        1.0  0.58700  0.27200  0.66900  1.0000
  I   I2        1.0  0.41300  0.77200  0.83100  1.0000
  I   I3        1.0  0.41300  0.72800  0.33100  1.0000
  I   I4        1.0  0.58700  0.22800  0.16900  1.0000
  I   I5        1.0  0.07540  0.28700  0.67000  1.0000
  I   I6        1.0  0.92500  0.78700  0.83000  1.0000
  I   I7        1.0  0.92500  0.71300  0.33000  1.0000
  I   I8        1.0  0.07540  0.21300  0.17000  1.0000
  Li  Li1       1.0  0.24000  0.23200  0.43300  1.0000
  Li  Li2       1.0  0.76000  0.73200  0.06680  1.0000
  Li  Li3       1.0  0.76000  0.76800  0.56700  1.0000
  Li  Li4       1.0  0.24000  0.26800  0.93300  1.0000
  O   O1        1.0  0.36500  0.87700  0.47800  1.0000
  O   O2        1.0  0.63500  0.37700  0.02220  1.0000
  O   O3        1.0  0.63500  0.12300  0.52200  1.0000
  O   O4        1.0  0.36500  0.62300  0.97800  1.0000
  O   O5        1.0  0.15100  0.03750  0.53200  1.0000
  O   O6        1.0  0.84900  0.53700  0.96800  1.0000
  O   O7        1.0  0.84900  0.96300  0.46800  1.0000
  O   O8        1.0  0.15100  0.46300  0.03210  1.0000
  O   O9        1.0  0.88900  0.45100  0.56400  1.0000
  O   O10       1.0  0.11100  0.95100  0.93600  1.0000
  O   O11       1.0  0.11100  0.54900  0.43600  1.0000
  O   O12       1.0  0.88900  0.04950  0.06380  1.0000
  O   O13       1.0  0.19600  0.57800  0.66200  1.0000
  O   O14       1.0  0.80400  0.07840  0.83800  1.0000
  O   O15       1.0  0.80400  0.42200  0.33800  1.0000
  O   O16       1.0  0.19600  0.92200  0.16200  1.0000
  O   O17       1.0  0.07420  0.44000  0.79600  1.0000
  O   O18       1.0  0.92600  0.94000  0.70400  1.0000
  O   O19       1.0  0.92600  0.56000  0.20400  1.0000
  O   O20       1.0  0.07420  0.06030  0.29600  1.0000
  O   O21       1.0  0.56600  0.37600  0.80300  1.0000
  O   O22       1.0  0.43400  0.87600  0.69700  1.0000
  O   O23       1.0  0.43400  0.62400  0.19700  1.0000
  O   O24       1.0  0.56600  0.12400  0.30300  1.0000
  O   O25       1.0  0.39500  0.40100  0.57300  1.0000
  O   O26       1.0  0.60500  0.90100  0.92700  1.0000
  O   O27       1.0  0.60500  0.59900  0.42700  1.0000
  O   O28       1.0  0.39500  0.09910  0.07330  1.0000
  O   O29       1.0  0.70200  0.58100  0.67800  1.0000
  O   O30       1.0  0.29800  0.08140  0.82200  1.0000
  O   O31       1.0  0.29800  0.41900  0.32200  1.0000
  O   O32       1.0  0.70200  0.91900  0.17800  1.0000
  V   V1        1.0  0.27000  0.77000  0.55400  1.0000
  V   V2        1.0  0.73000  0.27000  0.94600  1.0000
  V   V3        1.0  0.73000  0.23000  0.44600  1.0000
  V   V4        1.0  0.27000  0.73000  0.05360  1.0000
