data_image0
_chemical_formula_structural       Cl2La2O14Pb12
_chemical_formula_sum              "Cl2 La2 O14 Pb12"
_cell_length_a       9.82545
_cell_length_b       9.82545
_cell_length_c       9.13709
_cell_angle_alpha    64.1866
_cell_angle_beta     115.813
_cell_angle_gamma    131.321

_space_group_name_H-M_alt    "P 1"
_space_group_IT_number       1

loop_
  _space_group_symop_operation_xyz
  'x, y, z'

loop_
  _atom_site_type_symbol
  _atom_site_label
  _atom_site_symmetry_multiplicity
  _atom_site_fract_x
  _atom_site_fract_y
  _atom_site_fract_z
  _atom_site_occupancy
  Cl  Cl1       1.0  0.72800  0.72800  0.00000  1.0000
  Cl  Cl2       1.0  0.27200  0.27200  0.00000  1.0000
  La  La1       1.0  0.50000  0.00000  0.00000  1.0000
  La  La2       1.0  0.00000  0.50000  0.00000  1.0000
  O   O1        1.0  0.17600  0.82400  0.02910  1.0000
  O   O2        1.0  0.82400  0.17600  0.97100  1.0000
  O   O3        1.0  0.64900  0.35100  0.61000  1.0000
  O   O4        1.0  0.35100  0.64900  0.39000  1.0000
  O   O5        1.0  0.31900  0.11900  0.74300  1.0000
  O   O6        1.0  0.11900  0.31900  0.25700  1.0000
  O   O7        1.0  0.68100  0.88100  0.25700  1.0000
  O   O8        1.0  0.88100  0.68100  0.74300  1.0000
  O   O9        1.0  0.47800  0.96000  0.72400  1.0000
  O   O10       1.0  0.96000  0.47800  0.27600  1.0000
  O   O11       1.0  0.52200  0.04040  0.27600  1.0000
  O   O12       1.0  0.04040  0.52200  0.72400  1.0000
  O   O13       1.0  0.66700  0.33300  0.99300  1.0000
  O   O14       1.0  0.33300  0.66700  0.00746  1.0000
  Pb  Pb1       1.0  0.35700  0.10700  0.53100  1.0000
  Pb  Pb2       1.0  0.10700  0.35700  0.46900  1.0000
  Pb  Pb3       1.0  0.64300  0.89300  0.46900  1.0000
  Pb  Pb4       1.0  0.89300  0.64300  0.53100  1.0000
  Pb  Pb5       1.0  0.55300  0.44700  0.74900  1.0000
  Pb  Pb6       1.0  0.44700  0.55300  0.25100  1.0000
  Pb  Pb7       1.0  0.34900  0.65100  0.77700  1.0000
  Pb  Pb8       1.0  0.65100  0.34900  0.22300  1.0000
  Pb  Pb9       1.0  0.80100  0.19900  0.71300  1.0000
  Pb  Pb10      1.0  0.19900  0.80100  0.28700  1.0000
  Pb  Pb11      1.0  0.04190  0.95800  0.81500  1.0000
  Pb  Pb12      1.0  0.95800  0.04190  0.18500  1.0000
