data_image0
_chemical_formula_structural       Au8In16Pr4
_chemical_formula_sum              "Au8 In16 Pr4"
_cell_length_a       18.4292
_cell_length_b       4.6242
_cell_length_c       7.30607
_cell_angle_alpha    90
_cell_angle_beta     90
_cell_angle_gamma    90

_space_group_name_H-M_alt    "P 1"
_space_group_IT_number       1

loop_
  _space_group_symop_operation_xyz
  'x, y, z'

loop_
  _atom_site_type_symbol
  _atom_site_label
  _atom_site_symmetry_multiplicity
  _atom_site_fract_x
  _atom_site_fract_y
  _atom_site_fract_z
  _atom_site_occupancy
  Au  Au1       1.0  0.78100  0.25000  0.46800  1.0000
  Au  Au2       1.0  0.21900  0.75000  0.53200  1.0000
  Au  Au3       1.0  0.28100  0.25000  0.03150  1.0000
  Au  Au4       1.0  0.71900  0.75000  0.96800  1.0000
  Au  Au5       1.0  0.03820  0.25000  0.24400  1.0000
  Au  Au6       1.0  0.46200  0.75000  0.74400  1.0000
  Au  Au7       1.0  0.53800  0.25000  0.25600  1.0000
  Au  Au8       1.0  0.96200  0.75000  0.75600  1.0000
  In  In1       1.0  0.18700  0.25000  0.73400  1.0000
  In  In2       1.0  0.31300  0.75000  0.23400  1.0000
  In  In3       1.0  0.68700  0.25000  0.76600  1.0000
  In  In4       1.0  0.81300  0.75000  0.26600  1.0000
  In  In5       1.0  0.43200  0.25000  0.98900  1.0000
  In  In6       1.0  0.06820  0.75000  0.48900  1.0000
  In  In7       1.0  0.93200  0.25000  0.51100  1.0000
  In  In8       1.0  0.56800  0.75000  0.01150  1.0000
  In  In9       1.0  0.03540  0.25000  0.85300  1.0000
  In  In10      1.0  0.46500  0.75000  0.35300  1.0000
  In  In11      1.0  0.53500  0.25000  0.64700  1.0000
  In  In12      1.0  0.96500  0.75000  0.14700  1.0000
  In  In13      1.0  0.18500  0.25000  0.32300  1.0000
  In  In14      1.0  0.31500  0.75000  0.82300  1.0000
  In  In15      1.0  0.68500  0.25000  0.17700  1.0000
  In  In16      1.0  0.81500  0.75000  0.67700  1.0000
  Pr  Pr1       1.0  0.14100  0.75000  0.02240  1.0000
  Pr  Pr2       1.0  0.35900  0.25000  0.52200  1.0000
  Pr  Pr3       1.0  0.64100  0.75000  0.47800  1.0000
  Pr  Pr4       1.0  0.85900  0.25000  0.97800  1.0000
