data_image0
_chemical_formula_structural       As4Eu6S16
_chemical_formula_sum              "As4 Eu6 S16"
_cell_length_a       10.5205
_cell_length_b       10.5205
_cell_length_c       10.5205
_cell_angle_alpha    51.548
_cell_angle_beta     51.548
_cell_angle_gamma    51.548

_space_group_name_H-M_alt    "P 1"
_space_group_IT_number       1

loop_
  _space_group_symop_operation_xyz
  'x, y, z'

loop_
  _atom_site_type_symbol
  _atom_site_label
  _atom_site_symmetry_multiplicity
  _atom_site_fract_x
  _atom_site_fract_y
  _atom_site_fract_z
  _atom_site_occupancy
  As  As1       1.0  0.15900  0.15900  0.15900  1.0000
  As  As2       1.0  0.34100  0.34100  0.34100  1.0000
  As  As3       1.0  0.84100  0.84100  0.84100  1.0000
  As  As4       1.0  0.65900  0.65900  0.65900  1.0000
  Eu  Eu1       1.0  0.43000  0.75000  0.06990  1.0000
  Eu  Eu2       1.0  0.06990  0.43000  0.75000  1.0000
  Eu  Eu3       1.0  0.75000  0.06990  0.43000  1.0000
  Eu  Eu4       1.0  0.57000  0.25000  0.93000  1.0000
  Eu  Eu5       1.0  0.93000  0.57000  0.25000  1.0000
  Eu  Eu6       1.0  0.25000  0.93000  0.57000  1.0000
  S   S1        1.0  0.72300  0.44200  0.89000  1.0000
  S   S2        1.0  0.89000  0.72300  0.44200  1.0000
  S   S3        1.0  0.44200  0.89000  0.72300  1.0000
  S   S4        1.0  0.05760  0.77700  0.61000  1.0000
  S   S5        1.0  0.77700  0.61000  0.05760  1.0000
  S   S6        1.0  0.61000  0.05760  0.77700  1.0000
  S   S7        1.0  0.27700  0.55800  0.11000  1.0000
  S   S8        1.0  0.11000  0.27700  0.55800  1.0000
  S   S9        1.0  0.55800  0.11000  0.27700  1.0000
  S   S10       1.0  0.94200  0.22300  0.39000  1.0000
  S   S11       1.0  0.22300  0.39000  0.94200  1.0000
  S   S12       1.0  0.39000  0.94200  0.22300  1.0000
  S   S13       1.0  0.07840  0.07840  0.07840  1.0000
  S   S14       1.0  0.42200  0.42200  0.42200  1.0000
  S   S15       1.0  0.92200  0.92200  0.92200  1.0000
  S   S16       1.0  0.57800  0.57800  0.57800  1.0000
