data_image0
_chemical_formula_structural       CuF20Sb2Xe4
_chemical_formula_sum              "Cu1 F20 Sb2 Xe4"
_cell_length_a       7.90123
_cell_length_b       7.90123
_cell_length_c       7.90123
_cell_angle_alpha    104.451
_cell_angle_beta     104.451
_cell_angle_gamma    120.06

_space_group_name_H-M_alt    "P 1"
_space_group_IT_number       1

loop_
  _space_group_symop_operation_xyz
  'x, y, z'

loop_
  _atom_site_type_symbol
  _atom_site_label
  _atom_site_symmetry_multiplicity
  _atom_site_fract_x
  _atom_site_fract_y
  _atom_site_fract_z
  _atom_site_occupancy
  Cu  Cu1       1.0  0.50000  0.50000  0.00000  1.0000
  F   F1        1.0  0.74200  0.53800  0.19200  1.0000
  F   F2        1.0  0.34600  0.55100  0.80800  1.0000
  F   F3        1.0  0.46200  0.65400  0.20500  1.0000
  F   F4        1.0  0.44900  0.25800  0.79500  1.0000
  F   F5        1.0  0.49200  0.99200  0.50000  1.0000
  F   F6        1.0  0.00809  0.50800  0.50000  1.0000
  F   F7        1.0  0.05460  0.18600  0.24500  1.0000
  F   F8        1.0  0.94100  0.80900  0.75500  1.0000
  F   F9        1.0  0.81400  0.05910  0.86800  1.0000
  F   F10       1.0  0.19100  0.94500  0.13200  1.0000
  F   F11       1.0  0.54900  0.91700  0.08700  1.0000
  F   F12       1.0  0.83000  0.46200  0.91300  1.0000
  F   F13       1.0  0.08280  0.17000  0.63100  1.0000
  F   F14       1.0  0.53800  0.45100  0.36900  1.0000
  F   F15       1.0  0.12100  0.56800  0.23000  1.0000
  F   F16       1.0  0.33800  0.89000  0.77000  1.0000
  F   F17       1.0  0.43200  0.66200  0.55300  1.0000
  F   F18       1.0  0.11000  0.87900  0.44700  1.0000
  F   F19       1.0  0.75900  0.75900  0.00000  1.0000
  F   F20       1.0  0.24100  0.24100  0.00000  1.0000
  Sb  Sb1       1.0  0.00000  0.00000  0.00000  1.0000
  Sb  Sb2       1.0  0.25000  0.75000  0.50000  1.0000
  Xe  Xe1       1.0  0.77800  0.92500  0.42700  1.0000
  Xe  Xe2       1.0  0.49800  0.35100  0.57300  1.0000
  Xe  Xe3       1.0  0.07470  0.50200  0.85300  1.0000
  Xe  Xe4       1.0  0.64900  0.22200  0.14700  1.0000
