data_image0
_chemical_formula_structural       B4Bi2Cu5O14
_chemical_formula_sum              "B4 Bi2 Cu5 O14"
_cell_length_a       9.90808
_cell_length_b       9.27263
_cell_length_c       3.24121
_cell_angle_alpha    110.33
_cell_angle_beta     92.6449
_cell_angle_gamma    107.574

_space_group_name_H-M_alt    "P 1"
_space_group_IT_number       1

loop_
  _space_group_symop_operation_xyz
  'x, y, z'

loop_
  _atom_site_type_symbol
  _atom_site_label
  _atom_site_symmetry_multiplicity
  _atom_site_fract_x
  _atom_site_fract_y
  _atom_site_fract_z
  _atom_site_occupancy
  B   B1        1.0  0.66800  0.71400  0.86800  1.0000
  B   B2        1.0  0.32100  0.13200  0.07350  1.0000
  B   B3        1.0  0.18600  0.28800  0.85300  1.0000
  B   B4        1.0  0.80400  0.55700  0.08790  1.0000
  Bi  Bi1       1.0  0.15600  0.78900  0.37800  1.0000
  Bi  Bi2       1.0  0.83400  0.05590  0.56200  1.0000
  Cu  Cu1       1.0  0.49500  0.42200  0.96600  1.0000
  Cu  Cu2       1.0  0.49400  0.92200  0.97200  1.0000
  Cu  Cu3       1.0  0.64200  0.23400  0.24700  1.0000
  Cu  Cu4       1.0  0.34700  0.60900  0.68600  1.0000
  Cu  Cu5       1.0  0.99500  0.42200  0.46600  1.0000
  O   O1        1.0  0.67900  0.86100  0.84500  1.0000
  O   O2        1.0  0.31000  0.98500  0.09850  1.0000
  O   O3        1.0  0.30500  0.41500  0.88500  1.0000
  O   O4        1.0  0.16000  0.61400  0.70500  1.0000
  O   O5        1.0  0.37600  0.77100  0.41700  1.0000
  O   O6        1.0  0.68500  0.42900  0.05270  1.0000
  O   O7        1.0  0.45200  0.25000  0.17700  1.0000
  O   O8        1.0  0.82900  0.23100  0.23300  1.0000
  O   O9        1.0  0.61300  0.07410  0.52500  1.0000
  O   O10       1.0  0.93800  0.55500  0.17900  1.0000
  O   O11       1.0  0.53800  0.59400  0.75600  1.0000
  O   O12       1.0  0.79400  0.69500  0.01870  1.0000
  O   O13       1.0  0.05240  0.29100  0.75800  1.0000
  O   O14       1.0  0.19500  0.15100  0.93000  1.0000
