data_image0
_chemical_formula_structural       Ba6Li12O24Si6
_chemical_formula_sum              "Ba6 Li12 O24 Si6"
_cell_length_a       8.01503
_cell_length_b       8.01522
_cell_length_c       10.4117
_cell_angle_alpha    90.0012
_cell_angle_beta     89.9994
_cell_angle_gamma    120.022

_space_group_name_H-M_alt    "P 1"
_space_group_IT_number       1

loop_
  _space_group_symop_operation_xyz
  'x, y, z'

loop_
  _atom_site_type_symbol
  _atom_site_label
  _atom_site_symmetry_multiplicity
  _atom_site_fract_x
  _atom_site_fract_y
  _atom_site_fract_z
  _atom_site_occupancy
  Ba  Ba1       1.0  0.57200  0.00000  0.22900  1.0000
  Ba  Ba2       1.0  0.42800  0.00000  0.72900  1.0000
  Ba  Ba3       1.0  0.00001  0.57200  0.22900  1.0000
  Ba  Ba4       1.0  0.42800  0.42800  0.22900  1.0000
  Ba  Ba5       1.0  0.57200  0.57200  0.72900  1.0000
  Ba  Ba6       1.0  0.00000  0.42800  0.72900  1.0000
  Li  Li1       1.0  0.00000  0.22000  0.08020  1.0000
  Li  Li2       1.0  0.00000  0.78000  0.58000  1.0000
  Li  Li3       1.0  0.78000  0.78000  0.08010  1.0000
  Li  Li4       1.0  0.22000  0.00000  0.08020  1.0000
  Li  Li5       1.0  0.78000  0.00000  0.58000  1.0000
  Li  Li6       1.0  0.22000  0.22000  0.58000  1.0000
  Li  Li7       1.0  0.00004  0.73100  0.94100  1.0000
  Li  Li8       1.0  0.00000  0.26900  0.44100  1.0000
  Li  Li9       1.0  0.26900  0.26900  0.94100  1.0000
  Li  Li10      1.0  0.73100  0.00000  0.94100  1.0000
  Li  Li11      1.0  0.26900  0.00000  0.44100  1.0000
  Li  Li12      1.0  0.73100  0.73100  0.44100  1.0000
  O   O1        1.0  0.00000  1.00000  0.47500  1.0000
  O   O2        1.0  0.00013  0.00010  0.97500  1.0000
  O   O3        1.0  0.66700  0.33300  0.32400  1.0000
  O   O4        1.0  0.33300  0.66700  0.82400  1.0000
  O   O5        1.0  0.66700  0.33300  0.82400  1.0000
  O   O6        1.0  0.33300  0.66700  0.32400  1.0000
  O   O7        1.0  0.00000  0.19500  0.26600  1.0000
  O   O8        1.0  0.00015  0.80500  0.76600  1.0000
  O   O9        1.0  0.80400  0.80400  0.26600  1.0000
  O   O10       1.0  0.19500  0.00000  0.26600  1.0000
  O   O11       1.0  0.80500  0.00013  0.76600  1.0000
  O   O12       1.0  0.19600  0.19600  0.76600  1.0000
  O   O13       1.0  0.78000  0.22400  0.03240  1.0000
  O   O14       1.0  0.22000  0.77600  0.53200  1.0000
  O   O15       1.0  0.77600  0.55600  0.03250  1.0000
  O   O16       1.0  0.44400  0.22000  0.03250  1.0000
  O   O17       1.0  0.55600  0.78000  0.53300  1.0000
  O   O18       1.0  0.22400  0.44400  0.53200  1.0000
  O   O19       1.0  0.44400  0.22400  0.53200  1.0000
  O   O20       1.0  0.78000  0.55600  0.53200  1.0000
  O   O21       1.0  0.77600  0.22000  0.53200  1.0000
  O   O22       1.0  0.22400  0.78000  0.03240  1.0000
  O   O23       1.0  0.22000  0.44400  0.03250  1.0000
  O   O24       1.0  0.55600  0.77600  0.03240  1.0000
  Si  Si1       1.0  0.66700  0.33300  0.48100  1.0000
  Si  Si2       1.0  0.33300  0.66700  0.98100  1.0000
  Si  Si3       1.0  0.66700  0.33300  0.98100  1.0000
  Si  Si4       1.0  0.33300  0.66700  0.48100  1.0000
  Si  Si5       1.0  0.00000  0.00000  0.31300  1.0000
  Si  Si6       1.0  0.00017  0.00016  0.81300  1.0000
