data_image0
_chemical_formula_structural       AlC16F36H8LiO8
_chemical_formula_sum              "Al1 C16 F36 H8 Li1 O8"
_cell_length_a       9.09076
_cell_length_b       9.09076
_cell_length_c       9.09076
_cell_angle_alpha    100.303
_cell_angle_beta     100.303
_cell_angle_gamma    129.964

_space_group_name_H-M_alt    "P 1"
_space_group_IT_number       1

loop_
  _space_group_symop_operation_xyz
  'x, y, z'

loop_
  _atom_site_type_symbol
  _atom_site_label
  _atom_site_symmetry_multiplicity
  _atom_site_fract_x
  _atom_site_fract_y
  _atom_site_fract_z
  _atom_site_occupancy
  Al  Al1       1.0  0.00000  0.00000  0.00000  1.0000
  C   C1        1.0  0.44400  0.48700  0.39600  1.0000
  C   C2        1.0  0.09070  0.04840  0.60400  1.0000
  C   C3        1.0  0.51300  0.90900  0.95800  1.0000
  C   C4        1.0  0.95200  0.55600  0.04240  1.0000
  C   C5        1.0  0.28600  0.49300  0.15700  1.0000
  C   C6        1.0  0.33600  0.12900  0.84300  1.0000
  C   C7        1.0  0.50700  0.66400  0.79300  1.0000
  C   C8        1.0  0.87100  0.71400  0.20700  1.0000
  C   C9        1.0  0.23700  0.37100  0.26500  1.0000
  C   C10       1.0  0.10600  0.97300  0.73500  1.0000
  C   C11       1.0  0.62900  0.89400  0.86600  1.0000
  C   C12       1.0  0.02730  0.76300  0.13400  1.0000
  C   C13       1.0  0.08500  0.34400  0.33600  1.0000
  C   C14       1.0  0.00756  0.74900  0.66400  1.0000
  C   C15       1.0  0.65600  0.99200  0.74100  1.0000
  C   C16       1.0  0.25100  0.91500  0.25900  1.0000
  F   F1        1.0  0.28900  0.64000  0.21600  1.0000
  F   F2        1.0  0.42500  0.07330  0.78400  1.0000
  F   F3        1.0  0.36000  0.57500  0.64900  1.0000
  F   F4        1.0  0.92700  0.71100  0.35100  1.0000
  F   F5        1.0  0.14400  0.36300  0.00204  1.0000
  F   F6        1.0  0.36100  0.14200  0.99800  1.0000
  F   F7        1.0  0.63700  0.63900  0.78100  1.0000
  F   F8        1.0  0.85800  0.85600  0.21900  1.0000
  F   F9        1.0  0.47300  0.58900  0.15300  1.0000
  F   F10       1.0  0.43600  0.32000  0.84700  1.0000
  F   F11       1.0  0.41100  0.56400  0.88400  1.0000
  F   F12       1.0  0.68000  0.52700  0.11600  1.0000
  F   F13       1.0  0.55200  0.68600  0.47300  1.0000
  F   F14       1.0  0.21300  0.07940  0.52700  1.0000
  F   F15       1.0  0.31400  0.78700  0.86600  1.0000
  F   F16       1.0  0.92100  0.44800  0.13400  1.0000
  F   F17       1.0  0.55000  0.46800  0.32000  1.0000
  F   F18       1.0  0.14800  0.23000  0.68000  1.0000
  F   F19       1.0  0.53200  0.85200  0.08160  1.0000
  F   F20       1.0  0.77000  0.45000  0.91800  1.0000
  F   F21       1.0  0.42500  0.39900  0.50400  1.0000
  F   F22       1.0  0.89500  0.92100  0.49600  1.0000
  F   F23       1.0  0.60100  0.10500  0.02600  1.0000
  F   F24       1.0  0.07910  0.57500  0.97400  1.0000
  F   F25       1.0  0.14500  0.52200  0.42100  1.0000
  F   F26       1.0  0.10100  0.72400  0.57900  1.0000
  F   F27       1.0  0.47800  0.89900  0.62300  1.0000
  F   F28       1.0  0.27600  0.85500  0.37700  1.0000
  F   F29       1.0  0.06550  0.24000  0.43300  1.0000
  F   F30       1.0  0.80700  0.63200  0.56700  1.0000
  F   F31       1.0  0.76000  0.19300  0.82500  1.0000
  F   F32       1.0  0.36800  0.93400  0.17500  1.0000
  F   F33       1.0  0.89400  0.21900  0.22600  1.0000
  F   F34       1.0  0.99300  0.66900  0.77400  1.0000
  F   F35       1.0  0.78100  0.00686  0.67500  1.0000
  F   F36       1.0  0.33100  0.10600  0.32500  1.0000
  H   H1        1.0  0.57500  0.34800  0.58800  1.0000
  H   H2        1.0  0.76000  0.98700  0.41200  1.0000
  H   H3        1.0  0.65200  0.24000  0.22700  1.0000
  H   H4        1.0  0.01300  0.42500  0.77300  1.0000
  H   H5        1.0  0.66800  0.31200  0.71800  1.0000
  H   H6        1.0  0.59500  0.95000  0.28200  1.0000
  H   H7        1.0  0.68800  0.40500  0.35600  1.0000
  H   H8        1.0  0.04970  0.33200  0.64400  1.0000
  Li  Li1       1.0  0.75000  0.25000  0.50000  1.0000
  O   O1        1.0  0.60200  0.26400  0.60200  1.0000
  O   O2        1.0  0.66200  0.00048  0.39800  1.0000
  O   O3        1.0  0.73600  0.33800  0.33800  1.0000
  O   O4        1.0  0.00000  0.39800  0.66200  1.0000
  O   O5        1.0  0.17000  0.18800  0.18700  1.0000
  O   O6        1.0  0.00159  0.98300  0.81300  1.0000
  O   O7        1.0  0.81200  0.99800  0.98200  1.0000
  O   O8        1.0  0.01680  0.83000  0.01840  1.0000
