data_image0
_chemical_formula_structural       Br2Cs6Mo4O14
_chemical_formula_sum              "Br2 Cs6 Mo4 O14"
_cell_length_a       6.13038
_cell_length_b       6.13005
_cell_length_c       16.4358
_cell_angle_alpha    89.9974
_cell_angle_beta     89.9962
_cell_angle_gamma    120.034

_space_group_name_H-M_alt    "P 1"
_space_group_IT_number       1

loop_
  _space_group_symop_operation_xyz
  'x, y, z'

loop_
  _atom_site_type_symbol
  _atom_site_label
  _atom_site_symmetry_multiplicity
  _atom_site_fract_x
  _atom_site_fract_y
  _atom_site_fract_z
  _atom_site_occupancy
  Br  Br1       1.0  0.33200  0.66800  0.75000  1.0000
  Br  Br2       1.0  0.66800  0.33200  0.25000  1.0000
  Cs  Cs1       1.0  0.33300  0.66700  0.95500  1.0000
  Cs  Cs2       1.0  0.66700  0.33300  0.45500  1.0000
  Cs  Cs3       1.0  0.66700  0.33300  0.04540  1.0000
  Cs  Cs4       1.0  0.33300  0.66700  0.54500  1.0000
  Cs  Cs5       1.0  0.66600  0.33400  0.75000  1.0000
  Cs  Cs6       1.0  0.33400  0.66600  0.25000  1.0000
  Mo  Mo1       1.0  0.00000  0.00007  0.86500  1.0000
  Mo  Mo2       1.0  0.00009  1.00000  0.36500  1.0000
  Mo  Mo3       1.0  0.00011  0.00000  0.13500  1.0000
  Mo  Mo4       1.0  0.00000  0.00009  0.63500  1.0000
  O   O1        1.0  0.00000  0.00021  0.75000  1.0000
  O   O2        1.0  0.00028  0.00000  0.25000  1.0000
  O   O3        1.0  0.84500  0.69100  0.90300  1.0000
  O   O4        1.0  0.15500  0.30900  0.40300  1.0000
  O   O5        1.0  0.30900  0.15500  0.90300  1.0000
  O   O6        1.0  0.84500  0.15500  0.90300  1.0000
  O   O7        1.0  0.15500  0.84500  0.40300  1.0000
  O   O8        1.0  0.69100  0.84500  0.40300  1.0000
  O   O9        1.0  0.15500  0.30900  0.09690  1.0000
  O   O10       1.0  0.15500  0.84500  0.09690  1.0000
  O   O11       1.0  0.69100  0.84500  0.09690  1.0000
  O   O12       1.0  0.30900  0.15500  0.59700  1.0000
  O   O13       1.0  0.84500  0.15500  0.59700  1.0000
  O   O14       1.0  0.84500  0.69100  0.59700  1.0000
