data_image0
_chemical_formula_structural       As12Eu11Zn6
_chemical_formula_sum              "As12 Eu11 Zn6"
_cell_length_a       15.1539
_cell_length_b       15.1539
_cell_length_c       11.6031
_cell_angle_alpha    70.2905
_cell_angle_beta     109.709
_cell_angle_gamma    163.67

_space_group_name_H-M_alt    "P 1"
_space_group_IT_number       1

loop_
  _space_group_symop_operation_xyz
  'x, y, z'

loop_
  _atom_site_type_symbol
  _atom_site_label
  _atom_site_symmetry_multiplicity
  _atom_site_fract_x
  _atom_site_fract_y
  _atom_site_fract_z
  _atom_site_occupancy
  As  As1       1.0  0.30800  0.69200  0.45800  1.0000
  As  As2       1.0  0.69200  0.30800  0.54200  1.0000
  As  As3       1.0  0.14700  0.85300  0.78500  1.0000
  As  As4       1.0  0.85300  0.14700  0.21500  1.0000
  As  As5       1.0  0.08670  0.91300  0.23700  1.0000
  As  As6       1.0  0.91300  0.08670  0.76300  1.0000
  As  As7       1.0  0.70600  0.29400  0.14400  1.0000
  As  As8       1.0  0.29400  0.70600  0.85600  1.0000
  As  As9       1.0  0.45800  0.54200  0.49300  1.0000
  As  As10      1.0  0.54200  0.45800  0.50700  1.0000
  As  As11      1.0  0.45400  0.54600  0.12000  1.0000
  As  As12      1.0  0.54600  0.45400  0.88000  1.0000
  Eu  Eu1       1.0  0.28000  0.72000  0.13500  1.0000
  Eu  Eu2       1.0  0.72000  0.28000  0.86500  1.0000
  Eu  Eu3       1.0  0.19900  0.80100  0.34700  1.0000
  Eu  Eu4       1.0  0.80100  0.19900  0.65300  1.0000
  Eu  Eu5       1.0  0.00000  0.00000  0.00000  1.0000
  Eu  Eu6       1.0  0.01770  0.98200  0.68000  1.0000
  Eu  Eu7       1.0  0.98200  0.01770  0.32000  1.0000
  Eu  Eu8       1.0  0.12600  0.87400  0.02060  1.0000
  Eu  Eu9       1.0  0.87400  0.12600  0.97900  1.0000
  Eu  Eu10      1.0  0.11300  0.88700  0.51000  1.0000
  Eu  Eu11      1.0  0.88700  0.11300  0.49000  1.0000
  Zn  Zn1       1.0  0.54700  0.45300  0.23900  1.0000
  Zn  Zn2       1.0  0.45300  0.54700  0.76100  1.0000
  Zn  Zn3       1.0  0.40000  0.60000  0.25100  1.0000
  Zn  Zn4       1.0  0.60000  0.40000  0.74900  1.0000
  Zn  Zn5       1.0  0.21800  0.78200  0.67100  1.0000
  Zn  Zn6       1.0  0.78200  0.21800  0.32900  1.0000
