data_image0
_chemical_formula_structural       Cs2K14Rb10
_chemical_formula_sum              "Cs2 K14 Rb10"
_cell_length_a       8.8447
_cell_length_b       8.84865
_cell_length_c       31.8921
_cell_angle_alpha    89.9832
_cell_angle_beta     90.0054
_cell_angle_gamma    120.095

_space_group_name_H-M_alt    "P 1"
_space_group_IT_number       1

loop_
  _space_group_symop_operation_xyz
  'x, y, z'

loop_
  _atom_site_type_symbol
  _atom_site_label
  _atom_site_symmetry_multiplicity
  _atom_site_fract_x
  _atom_site_fract_y
  _atom_site_fract_z
  _atom_site_occupancy
  Cs  Cs1       1.0  0.34100  0.65800  0.25000  1.0000
  Cs  Cs2       1.0  0.67300  0.34300  0.74900  1.0000
  K   K1        1.0  0.16600  0.33400  0.11600  1.0000
  K   K2        1.0  0.83200  0.66600  0.61600  1.0000
  K   K3        1.0  0.66600  0.83300  0.11600  1.0000
  K   K4        1.0  0.16700  0.83300  0.11600  1.0000
  K   K5        1.0  0.83300  0.16700  0.61600  1.0000
  K   K6        1.0  0.33400  0.16700  0.61600  1.0000
  K   K7        1.0  0.83300  0.66600  0.88400  1.0000
  K   K8        1.0  0.83200  0.16700  0.88400  1.0000
  K   K9        1.0  0.33400  0.16700  0.88400  1.0000
  K   K10       1.0  0.66600  0.83300  0.38400  1.0000
  K   K11       1.0  0.16700  0.83300  0.38400  1.0000
  K   K12       1.0  0.16600  0.33400  0.38400  1.0000
  K   K13       1.0  0.99900  0.99900  0.00005  1.0000
  K   K14       1.0  0.99900  0.00071  0.50000  1.0000
  Rb  Rb1       1.0  0.33500  0.66900  0.82000  1.0000
  Rb  Rb2       1.0  0.66600  0.33100  0.32000  1.0000
  Rb  Rb3       1.0  0.66700  0.33300  0.18100  1.0000
  Rb  Rb4       1.0  0.33200  0.66700  0.68000  1.0000
  Rb  Rb5       1.0  0.33300  0.66600  0.97600  1.0000
  Rb  Rb6       1.0  0.66600  0.33300  0.47600  1.0000
  Rb  Rb7       1.0  0.66600  0.33300  0.02440  1.0000
  Rb  Rb8       1.0  0.33300  0.66600  0.52400  1.0000
  Rb  Rb9       1.0  0.00266  0.99400  0.24900  1.0000
  Rb  Rb10      1.0  0.99400  0.00743  0.75000  1.0000
