data_image0
_chemical_formula_structural       Ge14Pr8
_chemical_formula_sum              "Ge14 Pr8"
_cell_length_a       7.66263
_cell_length_b       7.66263
_cell_length_c       12.0699
_cell_angle_alpha    90
_cell_angle_beta     90
_cell_angle_gamma    46.4216

_space_group_name_H-M_alt    "P 1"
_space_group_IT_number       1

loop_
  _space_group_symop_operation_xyz
  'x, y, z'

loop_
  _atom_site_type_symbol
  _atom_site_label
  _atom_site_symmetry_multiplicity
  _atom_site_fract_x
  _atom_site_fract_y
  _atom_site_fract_z
  _atom_site_occupancy
  Ge  Ge1       1.0  0.67700  0.02610  0.16100  1.0000
  Ge  Ge2       1.0  0.32300  0.97400  0.66100  1.0000
  Ge  Ge3       1.0  0.97400  0.32300  0.83900  1.0000
  Ge  Ge4       1.0  0.02610  0.67700  0.33900  1.0000
  Ge  Ge5       1.0  0.42000  0.92400  0.13000  1.0000
  Ge  Ge6       1.0  0.58000  0.07620  0.63000  1.0000
  Ge  Ge7       1.0  0.07620  0.58000  0.87000  1.0000
  Ge  Ge8       1.0  0.92400  0.42000  0.37000  1.0000
  Ge  Ge9       1.0  0.43000  0.39400  0.01010  1.0000
  Ge  Ge10      1.0  0.57000  0.60600  0.51000  1.0000
  Ge  Ge11      1.0  0.60600  0.57000  0.99000  1.0000
  Ge  Ge12      1.0  0.39400  0.43000  0.49000  1.0000
  Ge  Ge13      1.0  0.05950  0.05950  0.25000  1.0000
  Ge  Ge14      1.0  0.94000  0.94000  0.75000  1.0000
  Pr  Pr1       1.0  0.48000  0.01050  0.38000  1.0000
  Pr  Pr2       1.0  0.52000  0.98900  0.88000  1.0000
  Pr  Pr3       1.0  0.98900  0.52000  0.62000  1.0000
  Pr  Pr4       1.0  0.01050  0.48000  0.12000  1.0000
  Pr  Pr5       1.0  0.01570  0.98400  0.00000  1.0000
  Pr  Pr6       1.0  0.98400  0.01570  0.50000  1.0000
  Pr  Pr7       1.0  0.50400  0.50400  0.25000  1.0000
  Pr  Pr8       1.0  0.49600  0.49600  0.75000  1.0000
