data_image0
_chemical_formula_structural       F6NbRb2
_chemical_formula_sum              "F6 Nb1 Rb2"
_cell_length_a       5.93048
_cell_length_b       5.9296
_cell_length_c       4.55073
_cell_angle_alpha    90.0013
_cell_angle_beta     89.9982
_cell_angle_gamma    119.996

_space_group_name_H-M_alt    "P 1"
_space_group_IT_number       1

loop_
  _space_group_symop_operation_xyz
  'x, y, z'

loop_
  _atom_site_type_symbol
  _atom_site_label
  _atom_site_symmetry_multiplicity
  _atom_site_fract_x
  _atom_site_fract_y
  _atom_site_fract_z
  _atom_site_occupancy
  F   F1        1.0  0.66700  0.83300  0.22700  1.0000
  F   F2        1.0  0.16700  0.33300  0.22700  1.0000
  F   F3        1.0  0.16700  0.83300  0.22700  1.0000
  F   F4        1.0  0.83300  0.16700  0.77300  1.0000
  F   F5        1.0  0.83300  0.66700  0.77300  1.0000
  F   F6        1.0  0.33300  0.16700  0.77300  1.0000
  Nb  Nb1       1.0  0.00000  0.00000  0.00000  1.0000
  Rb  Rb1       1.0  0.66700  0.33300  0.29300  1.0000
  Rb  Rb2       1.0  0.33300  0.66700  0.70700  1.0000
