data_image0
_chemical_formula_structural       Cs4Pd6Se12U2
_chemical_formula_sum              "Cs4 Pd6 Se12 U2"
_cell_length_a       11.6645
_cell_length_b       10.0653
_cell_length_c       9.23298
_cell_angle_alpha    74.235
_cell_angle_beta     56.1445
_cell_angle_gamma    49.6205

_space_group_name_H-M_alt    "P 1"
_space_group_IT_number       1

loop_
  _space_group_symop_operation_xyz
  'x, y, z'

loop_
  _atom_site_type_symbol
  _atom_site_label
  _atom_site_symmetry_multiplicity
  _atom_site_fract_x
  _atom_site_fract_y
  _atom_site_fract_z
  _atom_site_occupancy
  Cs  Cs1       1.0  0.25000  0.25000  0.25000  1.0000
  Cs  Cs2       1.0  0.75000  0.75000  0.75000  1.0000
  Cs  Cs3       1.0  0.31000  0.69000  0.31000  1.0000
  Cs  Cs4       1.0  0.69000  0.31000  0.69000  1.0000
  Pd  Pd1       1.0  0.83500  0.16500  0.16500  1.0000
  Pd  Pd2       1.0  0.16500  0.83500  0.83500  1.0000
  Pd  Pd3       1.0  0.82700  0.49200  0.17300  1.0000
  Pd  Pd4       1.0  0.49200  0.82700  0.50800  1.0000
  Pd  Pd5       1.0  0.50800  0.17300  0.49200  1.0000
  Pd  Pd6       1.0  0.17300  0.50800  0.82700  1.0000
  Se  Se1       1.0  0.02960  0.17200  0.19600  1.0000
  Se  Se2       1.0  0.17200  0.02960  0.60300  1.0000
  Se  Se3       1.0  0.60300  0.19600  0.17200  1.0000
  Se  Se4       1.0  0.19600  0.60300  0.02960  1.0000
  Se  Se5       1.0  0.97000  0.82800  0.80400  1.0000
  Se  Se6       1.0  0.82800  0.97000  0.39700  1.0000
  Se  Se7       1.0  0.39700  0.80400  0.82800  1.0000
  Se  Se8       1.0  0.80400  0.39700  0.97000  1.0000
  Se  Se9       1.0  0.40700  0.18900  0.81100  1.0000
  Se  Se10      1.0  0.18900  0.40700  0.59300  1.0000
  Se  Se11      1.0  0.59300  0.81100  0.18900  1.0000
  Se  Se12      1.0  0.81100  0.59300  0.40700  1.0000
  U   U1        1.0  0.16800  0.16800  0.83200  1.0000
  U   U2        1.0  0.83200  0.83200  0.16800  1.0000
