data_image0
_chemical_formula_structural       Cd4Eu10O2Sb10
_chemical_formula_sum              "Cd4 Eu10 O2 Sb10"
_cell_length_a       11.0927
_cell_length_b       11.0927
_cell_length_c       14.7374
_cell_angle_alpha    90
_cell_angle_beta     90
_cell_angle_gamma    24.1926

_space_group_name_H-M_alt    "P 1"
_space_group_IT_number       1

loop_
  _space_group_symop_operation_xyz
  'x, y, z'

loop_
  _atom_site_type_symbol
  _atom_site_label
  _atom_site_symmetry_multiplicity
  _atom_site_fract_x
  _atom_site_fract_y
  _atom_site_fract_z
  _atom_site_occupancy
  Cd  Cd1       1.0  0.36900  0.36900  0.08690  1.0000
  Cd  Cd2       1.0  0.63100  0.63100  0.58700  1.0000
  Cd  Cd3       1.0  0.63100  0.63100  0.91300  1.0000
  Cd  Cd4       1.0  0.36900  0.36900  0.41300  1.0000
  Eu  Eu1       1.0  0.00000  0.00000  0.00000  1.0000
  Eu  Eu2       1.0  0.00000  0.00000  0.50000  1.0000
  Eu  Eu3       1.0  0.27700  0.27700  0.62900  1.0000
  Eu  Eu4       1.0  0.72300  0.72300  0.12900  1.0000
  Eu  Eu5       1.0  0.72300  0.72300  0.37100  1.0000
  Eu  Eu6       1.0  0.27700  0.27700  0.87100  1.0000
  Eu  Eu7       1.0  0.90400  0.90400  0.25000  1.0000
  Eu  Eu8       1.0  0.09610  0.09610  0.75000  1.0000
  Eu  Eu9       1.0  0.11400  0.11400  0.25000  1.0000
  Eu  Eu10      1.0  0.88600  0.88600  0.75000  1.0000
  O   O1        1.0  0.65900  0.65900  0.25000  1.0000
  O   O2        1.0  0.34100  0.34100  0.75000  1.0000
  Sb  Sb1       1.0  0.50000  0.50000  0.15500  1.0000
  Sb  Sb2       1.0  0.50000  0.50000  0.65500  1.0000
  Sb  Sb3       1.0  0.50000  0.50000  0.84500  1.0000
  Sb  Sb4       1.0  0.50000  0.50000  0.34500  1.0000
  Sb  Sb5       1.0  0.29400  0.29400  0.25000  1.0000
  Sb  Sb6       1.0  0.70600  0.70600  0.75000  1.0000
  Sb  Sb7       1.0  0.14900  0.14900  0.02050  1.0000
  Sb  Sb8       1.0  0.85100  0.85100  0.52000  1.0000
  Sb  Sb9       1.0  0.85100  0.85100  0.98000  1.0000
  Sb  Sb10      1.0  0.14900  0.14900  0.48000  1.0000
