data_image0
_chemical_formula_structural       Bi8Ce20Ge4
_chemical_formula_sum              "Bi8 Ce20 Ge4"
_cell_length_a       12.8362
_cell_length_b       9.64588
_cell_length_c       8.44392
_cell_angle_alpha    90
_cell_angle_beta     90
_cell_angle_gamma    90

_space_group_name_H-M_alt    "P 1"
_space_group_IT_number       1

loop_
  _space_group_symop_operation_xyz
  'x, y, z'

loop_
  _atom_site_type_symbol
  _atom_site_label
  _atom_site_symmetry_multiplicity
  _atom_site_fract_x
  _atom_site_fract_y
  _atom_site_fract_z
  _atom_site_occupancy
  Bi  Bi1       1.0  0.32500  0.00797  0.07690  1.0000
  Bi  Bi2       1.0  0.17500  0.99200  0.57700  1.0000
  Bi  Bi3       1.0  0.82500  0.49200  0.42300  1.0000
  Bi  Bi4       1.0  0.67500  0.50800  0.92300  1.0000
  Bi  Bi5       1.0  0.67500  0.99200  0.92300  1.0000
  Bi  Bi6       1.0  0.82500  0.00797  0.42300  1.0000
  Bi  Bi7       1.0  0.17500  0.50800  0.57700  1.0000
  Bi  Bi8       1.0  0.32500  0.49200  0.07690  1.0000
  Ce  Ce1       1.0  0.29400  0.25000  0.36600  1.0000
  Ce  Ce2       1.0  0.20600  0.75000  0.86600  1.0000
  Ce  Ce3       1.0  0.79400  0.25000  0.13400  1.0000
  Ce  Ce4       1.0  0.70600  0.75000  0.63400  1.0000
  Ce  Ce5       1.0  0.21200  0.25000  0.84400  1.0000
  Ce  Ce6       1.0  0.28800  0.75000  0.34400  1.0000
  Ce  Ce7       1.0  0.71200  0.25000  0.65600  1.0000
  Ce  Ce8       1.0  0.78800  0.75000  0.15600  1.0000
  Ce  Ce9       1.0  0.00000  0.25000  0.53400  1.0000
  Ce  Ce10      1.0  0.50000  0.75000  0.03350  1.0000
  Ce  Ce11      1.0  0.50000  0.25000  0.96600  1.0000
  Ce  Ce12      1.0  0.00006  0.75000  0.46600  1.0000
  Ce  Ce13      1.0  0.06210  0.04610  0.18800  1.0000
  Ce  Ce14      1.0  0.43800  0.95400  0.68800  1.0000
  Ce  Ce15      1.0  0.56200  0.45400  0.31200  1.0000
  Ce  Ce16      1.0  0.93800  0.54600  0.81200  1.0000
  Ce  Ce17      1.0  0.93800  0.95400  0.81200  1.0000
  Ce  Ce18      1.0  0.56200  0.04610  0.31200  1.0000
  Ce  Ce19      1.0  0.43800  0.54600  0.68800  1.0000
  Ce  Ce20      1.0  0.06210  0.45400  0.18800  1.0000
  Ge  Ge1       1.0  0.48000  0.25000  0.58100  1.0000
  Ge  Ge2       1.0  0.01980  0.75000  0.08120  1.0000
  Ge  Ge3       1.0  0.98000  0.25000  0.91900  1.0000
  Ge  Ge4       1.0  0.52000  0.75000  0.41900  1.0000
