data_image0
_chemical_formula_structural       Al2B10H76Li4N12
_chemical_formula_sum              "Al2 B10 H76 Li4 N12"
_cell_length_a       7.37911
_cell_length_b       7.3787
_cell_length_c       15.1224
_cell_angle_alpha    89.9994
_cell_angle_beta     89.9994
_cell_angle_gamma    120.023

_space_group_name_H-M_alt    "P 1"
_space_group_IT_number       1

loop_
  _space_group_symop_operation_xyz
  'x, y, z'

loop_
  _atom_site_type_symbol
  _atom_site_label
  _atom_site_symmetry_multiplicity
  _atom_site_fract_x
  _atom_site_fract_y
  _atom_site_fract_z
  _atom_site_occupancy
  Al  Al1       1.0  0.00000  0.00000  0.50000  1.0000
  Al  Al2       1.0  0.00000  0.00000  1.00000  1.0000
  B   B1        1.0  0.62000  0.62000  0.25000  1.0000
  B   B2        1.0  0.38000  0.00001  0.25000  1.0000
  B   B3        1.0  0.00000  0.38000  0.25000  1.0000
  B   B4        1.0  0.38000  0.38000  0.75000  1.0000
  B   B5        1.0  0.62000  0.00000  0.75000  1.0000
  B   B6        1.0  0.00001  0.62000  0.75000  1.0000
  B   B7        1.0  0.33300  0.66700  0.45300  1.0000
  B   B8        1.0  0.66700  0.33300  0.04730  1.0000
  B   B9        1.0  0.66700  0.33300  0.54700  1.0000
  B   B10       1.0  0.33300  0.66700  0.95300  1.0000
  H   H1        1.0  0.22300  0.83100  0.54900  1.0000
  H   H2        1.0  0.17000  0.39300  0.54900  1.0000
  H   H3        1.0  0.60700  0.77700  0.54900  1.0000
  H   H4        1.0  0.39300  0.17000  0.95100  1.0000
  H   H5        1.0  0.77700  0.60700  0.95100  1.0000
  H   H6        1.0  0.83100  0.22300  0.95100  1.0000
  H   H7        1.0  0.77700  0.16900  0.45100  1.0000
  H   H8        1.0  0.83000  0.60700  0.45100  1.0000
  H   H9        1.0  0.39300  0.22300  0.45100  1.0000
  H   H10       1.0  0.60700  0.83000  0.04870  1.0000
  H   H11       1.0  0.22300  0.39300  0.04870  1.0000
  H   H12       1.0  0.16900  0.77700  0.04870  1.0000
  H   H13       1.0  0.31900  0.06030  0.59400  1.0000
  H   H14       1.0  0.94000  0.25900  0.59400  1.0000
  H   H15       1.0  0.74100  0.68100  0.59400  1.0000
  H   H16       1.0  0.25900  0.94000  0.90600  1.0000
  H   H17       1.0  0.68100  0.74100  0.90600  1.0000
  H   H18       1.0  0.06030  0.31900  0.90600  1.0000
  H   H19       1.0  0.68100  0.94000  0.40600  1.0000
  H   H20       1.0  0.06020  0.74100  0.40600  1.0000
  H   H21       1.0  0.25900  0.31900  0.40600  1.0000
  H   H22       1.0  0.74100  0.06020  0.09430  1.0000
  H   H23       1.0  0.31900  0.25900  0.09430  1.0000
  H   H24       1.0  0.94000  0.68100  0.09430  1.0000
  H   H25       1.0  0.11100  0.85800  0.63700  1.0000
  H   H26       1.0  0.14200  0.25300  0.63700  1.0000
  H   H27       1.0  0.74700  0.88900  0.63700  1.0000
  H   H28       1.0  0.25300  0.14200  0.86300  1.0000
  H   H29       1.0  0.88900  0.74700  0.86300  1.0000
  H   H30       1.0  0.85800  0.11100  0.86300  1.0000
  H   H31       1.0  0.88900  0.14200  0.36300  1.0000
  H   H32       1.0  0.85800  0.74700  0.36300  1.0000
  H   H33       1.0  0.25300  0.11100  0.36300  1.0000
  H   H34       1.0  0.74700  0.85800  0.13700  1.0000
  H   H35       1.0  0.11100  0.25300  0.13700  1.0000
  H   H36       1.0  0.14200  0.88900  0.13700  1.0000
  H   H37       1.0  0.33300  0.66700  0.53400  1.0000
  H   H38       1.0  0.66700  0.33300  0.96600  1.0000
  H   H39       1.0  0.66700  0.33300  0.46600  1.0000
  H   H40       1.0  0.33300  0.66700  0.03380  1.0000
  H   H41       1.0  0.37300  0.83900  0.42600  1.0000
  H   H42       1.0  0.16100  0.53400  0.42600  1.0000
  H   H43       1.0  0.46600  0.62700  0.42600  1.0000
  H   H44       1.0  0.53400  0.16100  0.07380  1.0000
  H   H45       1.0  0.62700  0.46600  0.07380  1.0000
  H   H46       1.0  0.83900  0.37300  0.07380  1.0000
  H   H47       1.0  0.62700  0.16100  0.57400  1.0000
  H   H48       1.0  0.83900  0.46600  0.57400  1.0000
  H   H49       1.0  0.53400  0.37300  0.57400  1.0000
  H   H50       1.0  0.46600  0.83900  0.92600  1.0000
  H   H51       1.0  0.37300  0.53400  0.92600  1.0000
  H   H52       1.0  0.16100  0.62700  0.92600  1.0000
  H   H53       1.0  0.57100  0.47900  0.30300  1.0000
  H   H54       1.0  0.52100  0.09250  0.30300  1.0000
  H   H55       1.0  0.90800  0.42900  0.30300  1.0000
  H   H56       1.0  0.09240  0.52100  0.19700  1.0000
  H   H57       1.0  0.42800  0.90800  0.19700  1.0000
  H   H58       1.0  0.47900  0.57100  0.19700  1.0000
  H   H59       1.0  0.42900  0.52100  0.69700  1.0000
  H   H60       1.0  0.47900  0.90800  0.69700  1.0000
  H   H61       1.0  0.09240  0.57100  0.69700  1.0000
  H   H62       1.0  0.90800  0.47900  0.80300  1.0000
  H   H63       1.0  0.57200  0.09240  0.80300  1.0000
  H   H64       1.0  0.52100  0.42900  0.80300  1.0000
  H   H65       1.0  0.65600  0.78100  0.28800  1.0000
  H   H66       1.0  0.21900  0.87500  0.28800  1.0000
  H   H67       1.0  0.12500  0.34400  0.28800  1.0000
  H   H68       1.0  0.87500  0.21900  0.21200  1.0000
  H   H69       1.0  0.34400  0.12500  0.21200  1.0000
  H   H70       1.0  0.78100  0.65600  0.21200  1.0000
  H   H71       1.0  0.34400  0.21900  0.71200  1.0000
  H   H72       1.0  0.78100  0.12500  0.71200  1.0000
  H   H73       1.0  0.87500  0.65600  0.71200  1.0000
  H   H74       1.0  0.12500  0.78100  0.78800  1.0000
  H   H75       1.0  0.65600  0.87500  0.78800  1.0000
  H   H76       1.0  0.21900  0.34400  0.78800  1.0000
  Li  Li1       1.0  0.33300  0.66700  0.28400  1.0000
  Li  Li2       1.0  0.66700  0.33300  0.21600  1.0000
  Li  Li3       1.0  0.66700  0.33300  0.71600  1.0000
  Li  Li4       1.0  0.33300  0.66700  0.78400  1.0000
  N   N1        1.0  0.17900  0.92900  0.57800  1.0000
  N   N2        1.0  0.07090  0.25000  0.57800  1.0000
  N   N3        1.0  0.75000  0.82100  0.57800  1.0000
  N   N4        1.0  0.25000  0.07090  0.92200  1.0000
  N   N5        1.0  0.82100  0.75000  0.92200  1.0000
  N   N6        1.0  0.92900  0.17900  0.92200  1.0000
  N   N7        1.0  0.82100  0.07090  0.42200  1.0000
  N   N8        1.0  0.92900  0.75000  0.42200  1.0000
  N   N9        1.0  0.25000  0.17900  0.42200  1.0000
  N   N10       1.0  0.75000  0.92900  0.07810  1.0000
  N   N11       1.0  0.17900  0.25000  0.07810  1.0000
  N   N12       1.0  0.07080  0.82100  0.07810  1.0000
