data_image0
_chemical_formula_structural       B4Eu8I4N8
_chemical_formula_sum              "B4 Eu8 I4 N8"
_cell_length_a       9.98533
_cell_length_b       4.04105
_cell_length_c       12.8074
_cell_angle_alpha    90.6684
_cell_angle_beta     90.6394
_cell_angle_gamma    91.6367

_space_group_name_H-M_alt    "P 1"
_space_group_IT_number       1

loop_
  _space_group_symop_operation_xyz
  'x, y, z'

loop_
  _atom_site_type_symbol
  _atom_site_label
  _atom_site_symmetry_multiplicity
  _atom_site_fract_x
  _atom_site_fract_y
  _atom_site_fract_z
  _atom_site_occupancy
  B   B1        1.0  0.15800  0.23400  0.15100  1.0000
  B   B2        1.0  0.84200  0.76600  0.84900  1.0000
  B   B3        1.0  0.58100  0.26000  0.60200  1.0000
  B   B4        1.0  0.41900  0.74000  0.39800  1.0000
  Eu  Eu1       1.0  0.60600  0.27800  0.82500  1.0000
  Eu  Eu2       1.0  0.39400  0.72200  0.17500  1.0000
  Eu  Eu3       1.0  0.08120  0.25100  0.90400  1.0000
  Eu  Eu4       1.0  0.91900  0.74900  0.09570  1.0000
  Eu  Eu5       1.0  0.19500  0.23900  0.39100  1.0000
  Eu  Eu6       1.0  0.80500  0.76100  0.60900  1.0000
  Eu  Eu7       1.0  0.65400  0.23700  0.36200  1.0000
  Eu  Eu8       1.0  0.34600  0.76300  0.63800  1.0000
  I   I1        1.0  0.07550  0.25400  0.64300  1.0000
  I   I2        1.0  0.92400  0.74600  0.35700  1.0000
  I   I3        1.0  0.64900  0.24100  0.09150  1.0000
  I   I4        1.0  0.35100  0.75900  0.90900  1.0000
  N   N1        1.0  0.26800  0.21400  0.21200  1.0000
  N   N2        1.0  0.73200  0.78600  0.78800  1.0000
  N   N3        1.0  0.47500  0.27400  0.66500  1.0000
  N   N4        1.0  0.52500  0.72600  0.33500  1.0000
  N   N5        1.0  0.69500  0.24800  0.54700  1.0000
  N   N6        1.0  0.30500  0.75200  0.45300  1.0000
  N   N7        1.0  0.04930  0.25900  0.08960  1.0000
  N   N8        1.0  0.95100  0.74100  0.91000  1.0000
