data_image0
_chemical_formula_structural       MnS17U8
_chemical_formula_sum              "Mn1 S17 U8"
_cell_length_a       7.75574
_cell_length_b       7.75574
_cell_length_c       10.2673
_cell_angle_alpha    80.2611
_cell_angle_beta     99.7389
_cell_angle_gamma    115.584

_space_group_name_H-M_alt    "P 1"
_space_group_IT_number       1

loop_
  _space_group_symop_operation_xyz
  'x, y, z'

loop_
  _atom_site_type_symbol
  _atom_site_label
  _atom_site_symmetry_multiplicity
  _atom_site_fract_x
  _atom_site_fract_y
  _atom_site_fract_z
  _atom_site_occupancy
  Mn  Mn1       1.0  0.00000  0.00000  0.00000  1.0000
  S   S1        1.0  0.05720  0.94300  0.22600  1.0000
  S   S2        1.0  0.94300  0.05720  0.77400  1.0000
  S   S3        1.0  0.43200  0.18100  0.46400  1.0000
  S   S4        1.0  0.18100  0.43200  0.53600  1.0000
  S   S5        1.0  0.56800  0.81900  0.53600  1.0000
  S   S6        1.0  0.81900  0.56800  0.46400  1.0000
  S   S7        1.0  0.52100  0.47900  0.17200  1.0000
  S   S8        1.0  0.47900  0.52100  0.82800  1.0000
  S   S9        1.0  0.30200  0.69800  0.24400  1.0000
  S   S10       1.0  0.69800  0.30200  0.75600  1.0000
  S   S11       1.0  1.00000  0.00000  0.50000  1.0000
  S   S12       1.0  0.67600  0.94300  0.03080  1.0000
  S   S13       1.0  0.94300  0.67600  0.96900  1.0000
  S   S14       1.0  0.32400  0.05700  0.96900  1.0000
  S   S15       1.0  0.05700  0.32400  0.03080  1.0000
  S   S16       1.0  0.21300  0.78700  0.72100  1.0000
  S   S17       1.0  0.78700  0.21300  0.27900  1.0000
  U   U1        1.0  0.69800  0.82000  0.29800  1.0000
  U   U2        1.0  0.82000  0.69800  0.70200  1.0000
  U   U3        1.0  0.30200  0.18000  0.70200  1.0000
  U   U4        1.0  0.18000  0.30200  0.29800  1.0000
  U   U5        1.0  0.68200  0.31800  0.01780  1.0000
  U   U6        1.0  0.31800  0.68200  0.98200  1.0000
  U   U7        1.0  0.20400  0.79600  0.45500  1.0000
  U   U8        1.0  0.79600  0.20400  0.54500  1.0000
