data_image0
_chemical_formula_structural       Np2P8S24
_chemical_formula_sum              "Np2 P8 S24"
_cell_length_a       10.4008
_cell_length_b       10.4008
_cell_length_c       10.4008
_cell_angle_alpha    103
_cell_angle_beta     103
_cell_angle_gamma    123.374

_space_group_name_H-M_alt    "P 1"
_space_group_IT_number       1

loop_
  _space_group_symop_operation_xyz
  'x, y, z'

loop_
  _atom_site_type_symbol
  _atom_site_label
  _atom_site_symmetry_multiplicity
  _atom_site_fract_x
  _atom_site_fract_y
  _atom_site_fract_z
  _atom_site_occupancy
  Np  Np1       1.0  0.37500  0.12500  0.25000  1.0000
  Np  Np2       1.0  0.62500  0.87500  0.75000  1.0000
  P   P1        1.0  0.44700  0.37500  0.06070  1.0000
  P   P2        1.0  0.81400  0.38600  0.43900  1.0000
  P   P3        1.0  0.87500  0.31400  0.92800  1.0000
  P   P4        1.0  0.88600  0.94700  0.57200  1.0000
  P   P5        1.0  0.55300  0.62500  0.93900  1.0000
  P   P6        1.0  0.18600  0.61400  0.56100  1.0000
  P   P7        1.0  0.12500  0.68600  0.07190  1.0000
  P   P8        1.0  0.11400  0.05350  0.42800  1.0000
  S   S1        1.0  0.29700  0.32100  0.16600  1.0000
  S   S2        1.0  0.65500  0.13100  0.33400  1.0000
  S   S3        1.0  0.82100  0.15500  0.02380  1.0000
  S   S4        1.0  0.63100  0.79700  0.47600  1.0000
  S   S5        1.0  0.70300  0.67900  0.83400  1.0000
  S   S6        1.0  0.34500  0.86900  0.66600  1.0000
  S   S7        1.0  0.17900  0.84500  0.97600  1.0000
  S   S8        1.0  0.36900  0.20300  0.52400  1.0000
  S   S9        1.0  0.96400  0.01230  0.78700  1.0000
  S   S10       1.0  0.72600  0.17800  0.71300  1.0000
  S   S11       1.0  0.51200  0.22600  0.04800  1.0000
  S   S12       1.0  0.67800  0.46400  0.45200  1.0000
  S   S13       1.0  0.03570  0.98800  0.21300  1.0000
  S   S14       1.0  0.27400  0.82200  0.28700  1.0000
  S   S15       1.0  0.48800  0.77400  0.95200  1.0000
  S   S16       1.0  0.32200  0.53600  0.54800  1.0000
  S   S17       1.0  0.98900  0.84200  0.48100  1.0000
  S   S18       1.0  0.86100  0.50800  0.01890  1.0000
  S   S19       1.0  0.34200  0.36100  0.85200  1.0000
  S   S20       1.0  0.00828  0.48900  0.64800  1.0000
  S   S21       1.0  0.01060  0.15800  0.51900  1.0000
  S   S22       1.0  0.13900  0.49200  0.98100  1.0000
  S   S23       1.0  0.65800  0.63900  0.14800  1.0000
  S   S24       1.0  0.99200  0.51100  0.35200  1.0000
