data_image0
_chemical_formula_structural       Cs2F25Th6
_chemical_formula_sum              "Cs2 F25 Th6"
_cell_length_a       8.00599
_cell_length_b       8.00582
_cell_length_c       8.35596
_cell_angle_alpha    89.9984
_cell_angle_beta     90.0003
_cell_angle_gamma    120.04

_space_group_name_H-M_alt    "P 1"
_space_group_IT_number       1

loop_
  _space_group_symop_operation_xyz
  'x, y, z'

loop_
  _atom_site_type_symbol
  _atom_site_label
  _atom_site_symmetry_multiplicity
  _atom_site_fract_x
  _atom_site_fract_y
  _atom_site_fract_z
  _atom_site_occupancy
  Cs  Cs1       1.0  0.00000  0.00000  0.50000  1.0000
  Cs  Cs2       1.0  0.00000  0.00000  0.00000  1.0000
  F   F1        1.0  0.34100  0.34100  0.50000  1.0000
  F   F2        1.0  0.65900  0.65900  0.50000  1.0000
  F   F3        1.0  0.65900  0.00000  0.50000  1.0000
  F   F4        1.0  0.00000  0.65900  0.50000  1.0000
  F   F5        1.0  0.00010  0.34100  0.50000  1.0000
  F   F6        1.0  0.34100  0.00014  0.50000  1.0000
  F   F7        1.0  0.33300  0.66700  0.35500  1.0000
  F   F8        1.0  0.66700  0.33300  0.35500  1.0000
  F   F9        1.0  0.66700  0.33300  0.64500  1.0000
  F   F10       1.0  0.33300  0.66700  0.64500  1.0000
  F   F11       1.0  0.63900  0.81900  0.18900  1.0000
  F   F12       1.0  0.36100  0.18100  0.18900  1.0000
  F   F13       1.0  0.18100  0.81900  0.18900  1.0000
  F   F14       1.0  0.18100  0.36100  0.18900  1.0000
  F   F15       1.0  0.81900  0.63900  0.18900  1.0000
  F   F16       1.0  0.81900  0.18100  0.18900  1.0000
  F   F17       1.0  0.81900  0.18100  0.81100  1.0000
  F   F18       1.0  0.36100  0.18100  0.81100  1.0000
  F   F19       1.0  0.81900  0.63900  0.81100  1.0000
  F   F20       1.0  0.18100  0.36100  0.81100  1.0000
  F   F21       1.0  0.63900  0.81900  0.81100  1.0000
  F   F22       1.0  0.18100  0.81900  0.81100  1.0000
  F   F23       1.0  0.50000  0.50000  0.00000  1.0000
  F   F24       1.0  0.50000  0.00013  0.00000  1.0000
  F   F25       1.0  0.00000  0.50000  0.00000  1.0000
  Th  Th1       1.0  0.50000  0.50000  0.26700  1.0000
  Th  Th2       1.0  0.50000  0.00000  0.26700  1.0000
  Th  Th3       1.0  0.00002  0.50000  0.26700  1.0000
  Th  Th4       1.0  0.00000  0.50000  0.73300  1.0000
  Th  Th5       1.0  0.50000  0.00001  0.73300  1.0000
  Th  Th6       1.0  0.50000  0.50000  0.73300  1.0000
