data_image0
_chemical_formula_structural       Ga4Ge2La4S16
_chemical_formula_sum              "Ga4 Ge2 La4 S16"
_cell_length_a       9.3291
_cell_length_b       9.3291
_cell_length_c       11.4168
_cell_angle_alpha    90
_cell_angle_beta     90
_cell_angle_gamma    143.742

_space_group_name_H-M_alt    "P 1"
_space_group_IT_number       1

loop_
  _space_group_symop_operation_xyz
  'x, y, z'

loop_
  _atom_site_type_symbol
  _atom_site_label
  _atom_site_symmetry_multiplicity
  _atom_site_fract_x
  _atom_site_fract_y
  _atom_site_fract_z
  _atom_site_occupancy
  Ga  Ga1       1.0  0.67700  0.29000  0.77700  1.0000
  Ga  Ga2       1.0  0.32300  0.71000  0.27700  1.0000
  Ga  Ga3       1.0  0.29000  0.67700  0.77700  1.0000
  Ga  Ga4       1.0  0.71000  0.32300  0.27700  1.0000
  Ge  Ge1       1.0  0.57100  0.57100  0.84500  1.0000
  Ge  Ge2       1.0  0.42900  0.42900  0.34500  1.0000
  La  La1       1.0  0.82700  0.10300  0.57300  1.0000
  La  La2       1.0  0.17300  0.89700  0.07320  1.0000
  La  La3       1.0  0.10300  0.82700  0.57300  1.0000
  La  La4       1.0  0.89700  0.17300  0.07320  1.0000
  S   S1        1.0  0.65800  0.27400  0.58100  1.0000
  S   S2        1.0  0.34200  0.72600  0.08070  1.0000
  S   S3        1.0  0.27400  0.65800  0.58100  1.0000
  S   S4        1.0  0.72600  0.34200  0.08070  1.0000
  S   S5        1.0  0.38100  0.20000  0.84500  1.0000
  S   S6        1.0  0.61900  0.80000  0.34500  1.0000
  S   S7        1.0  0.20000  0.38100  0.84500  1.0000
  S   S8        1.0  0.80000  0.61900  0.34500  1.0000
  S   S9        1.0  0.67700  0.05170  0.82900  1.0000
  S   S10       1.0  0.32300  0.94800  0.32900  1.0000
  S   S11       1.0  0.05170  0.67700  0.82900  1.0000
  S   S12       1.0  0.94800  0.32300  0.32900  1.0000
  S   S13       1.0  0.75900  0.75900  0.67600  1.0000
  S   S14       1.0  0.24100  0.24100  0.17600  1.0000
  S   S15       1.0  0.78900  0.78900  0.00461  1.0000
  S   S16       1.0  0.21100  0.21100  0.50500  1.0000
