data_image0
_chemical_formula_structural       Cs4Mo6O20
_chemical_formula_sum              "Cs4 Mo6 O20"
_cell_length_a       7.94697
_cell_length_b       7.94697
_cell_length_c       9.2199
_cell_angle_alpha    82.6475
_cell_angle_beta     97.3525
_cell_angle_gamma    119.812

_space_group_name_H-M_alt    "P 1"
_space_group_IT_number       1

loop_
  _space_group_symop_operation_xyz
  'x, y, z'

loop_
  _atom_site_type_symbol
  _atom_site_label
  _atom_site_symmetry_multiplicity
  _atom_site_fract_x
  _atom_site_fract_y
  _atom_site_fract_z
  _atom_site_occupancy
  Cs  Cs1       1.0  0.57800  0.22300  0.14700  1.0000
  Cs  Cs2       1.0  0.22300  0.57800  0.35300  1.0000
  Cs  Cs3       1.0  0.42200  0.77700  0.85300  1.0000
  Cs  Cs4       1.0  0.77700  0.42200  0.64700  1.0000
  Mo  Mo1       1.0  0.81400  0.03360  0.47300  1.0000
  Mo  Mo2       1.0  0.03360  0.81400  0.02660  1.0000
  Mo  Mo3       1.0  0.18600  0.96600  0.52700  1.0000
  Mo  Mo4       1.0  0.96600  0.18600  0.97300  1.0000
  Mo  Mo5       1.0  0.69200  0.69200  0.25000  1.0000
  Mo  Mo6       1.0  0.30800  0.30800  0.75000  1.0000
  O   O1        1.0  0.84100  0.25900  0.40400  1.0000
  O   O2        1.0  0.25900  0.84100  0.09570  1.0000
  O   O3        1.0  0.15900  0.74100  0.59600  1.0000
  O   O4        1.0  0.74100  0.15900  0.90400  1.0000
  O   O5        1.0  0.66600  0.95500  0.61700  1.0000
  O   O6        1.0  0.95500  0.66600  0.88300  1.0000
  O   O7        1.0  0.33400  0.04520  0.38300  1.0000
  O   O8        1.0  0.04520  0.33400  0.11700  1.0000
  O   O9        1.0  0.93300  0.87200  0.41900  1.0000
  O   O10       1.0  0.87200  0.93300  0.08140  1.0000
  O   O11       1.0  0.06670  0.12800  0.58100  1.0000
  O   O12       1.0  0.12800  0.06670  0.91900  1.0000
  O   O13       1.0  0.64200  0.88500  0.31400  1.0000
  O   O14       1.0  0.88500  0.64200  0.18600  1.0000
  O   O15       1.0  0.35800  0.11500  0.68600  1.0000
  O   O16       1.0  0.11500  0.35800  0.81400  1.0000
  O   O17       1.0  0.50200  0.60100  0.11600  1.0000
  O   O18       1.0  0.60100  0.50200  0.38400  1.0000
  O   O19       1.0  0.49800  0.39900  0.88400  1.0000
  O   O20       1.0  0.39900  0.49800  0.61600  1.0000
