data_image0
_chemical_formula_structural       H6NaO14S2V3
_chemical_formula_sum              "H6 Na1 O14 S2 V3"
_cell_length_a       6.76123
_cell_length_b       6.76101
_cell_length_c       6.76103
_cell_angle_alpha    63.9582
_cell_angle_beta     63.9591
_cell_angle_gamma    63.9595

_space_group_name_H-M_alt    "P 1"
_space_group_IT_number       1

loop_
  _space_group_symop_operation_xyz
  'x, y, z'

loop_
  _atom_site_type_symbol
  _atom_site_label
  _atom_site_symmetry_multiplicity
  _atom_site_fract_x
  _atom_site_fract_y
  _atom_site_fract_z
  _atom_site_occupancy
  H   H1        1.0  0.30800  0.30800  0.70200  1.0000
  H   H2        1.0  0.70200  0.30800  0.30800  1.0000
  H   H3        1.0  0.30800  0.70200  0.30800  1.0000
  H   H4        1.0  0.69200  0.69200  0.29800  1.0000
  H   H5        1.0  0.69200  0.29800  0.69200  1.0000
  H   H6        1.0  0.29800  0.69200  0.69200  1.0000
  Na  Na1       1.0  0.00001  0.00000  0.00003  1.0000
  O   O1        1.0  0.59000  0.59000  0.59000  1.0000
  O   O2        1.0  0.41000  0.41000  0.41000  1.0000
  O   O3        1.0  0.82400  0.48400  0.82400  1.0000
  O   O4        1.0  0.82400  0.82400  0.48400  1.0000
  O   O5        1.0  0.48400  0.82400  0.82400  1.0000
  O   O6        1.0  0.51600  0.17600  0.17600  1.0000
  O   O7        1.0  0.17600  0.17600  0.51600  1.0000
  O   O8        1.0  0.17600  0.51600  0.17600  1.0000
  O   O9        1.0  0.25800  0.25800  0.87300  1.0000
  O   O10       1.0  0.87300  0.25800  0.25800  1.0000
  O   O11       1.0  0.25800  0.87300  0.25800  1.0000
  O   O12       1.0  0.74200  0.74200  0.12700  1.0000
  O   O13       1.0  0.74200  0.12700  0.74200  1.0000
  O   O14       1.0  0.12700  0.74200  0.74200  1.0000
  S   S1        1.0  0.68300  0.68200  0.68200  1.0000
  S   S2        1.0  0.31700  0.31800  0.31800  1.0000
  V   V1        1.0  0.00001  0.50000  0.00001  1.0000
  V   V2        1.0  0.00002  0.00000  0.50000  1.0000
  V   V3        1.0  0.50000  0.00000  0.00001  1.0000
