data_image0
_chemical_formula_structural       Er6Mn6O18
_chemical_formula_sum              "Er6 Mn6 O18"
_cell_length_a       6.04504
_cell_length_b       6.04505
_cell_length_c       11.401
_cell_angle_alpha    90
_cell_angle_beta     90
_cell_angle_gamma    120.034

_space_group_name_H-M_alt    "P 1"
_space_group_IT_number       1

loop_
  _space_group_symop_operation_xyz
  'x, y, z'

loop_
  _atom_site_type_symbol
  _atom_site_label
  _atom_site_symmetry_multiplicity
  _atom_site_fract_x
  _atom_site_fract_y
  _atom_site_fract_z
  _atom_site_occupancy
  Er  Er1       1.0  0.00000  0.00000  0.77400  1.0000
  Er  Er2       1.0  0.00000  0.00000  0.27400  1.0000
  Er  Er3       1.0  0.33300  0.66700  0.22800  1.0000
  Er  Er4       1.0  0.66700  0.33300  0.72800  1.0000
  Er  Er5       1.0  0.33300  0.66700  0.72800  1.0000
  Er  Er6       1.0  0.66700  0.33300  0.22800  1.0000
  Mn  Mn1       1.0  0.00000  0.33300  0.99800  1.0000
  Mn  Mn2       1.0  0.00008  0.66700  0.49800  1.0000
  Mn  Mn3       1.0  0.66600  0.66600  0.99800  1.0000
  Mn  Mn4       1.0  0.33300  0.00000  0.99800  1.0000
  Mn  Mn5       1.0  0.66700  0.00008  0.49800  1.0000
  Mn  Mn6       1.0  0.33300  0.33300  0.49800  1.0000
  O   O1        1.0  0.33300  0.66700  0.01910  1.0000
  O   O2        1.0  0.66700  0.33300  0.51900  1.0000
  O   O3        1.0  0.33300  0.66700  0.51900  1.0000
  O   O4        1.0  0.66700  0.33300  0.01910  1.0000
  O   O5        1.0  0.00014  0.00014  0.97300  1.0000
  O   O6        1.0  0.00000  0.00000  0.47300  1.0000
  O   O7        1.0  0.00000  0.30300  0.16300  1.0000
  O   O8        1.0  0.00005  0.69700  0.66300  1.0000
  O   O9        1.0  0.69700  0.69700  0.16300  1.0000
  O   O10       1.0  0.30300  1.00000  0.16300  1.0000
  O   O11       1.0  0.69700  0.00005  0.66300  1.0000
  O   O12       1.0  0.30300  0.30300  0.66300  1.0000
  O   O13       1.0  0.00000  0.36300  0.83300  1.0000
  O   O14       1.0  0.00007  0.63700  0.33300  1.0000
  O   O15       1.0  0.63700  0.63700  0.83300  1.0000
  O   O16       1.0  0.36300  0.00000  0.83300  1.0000
  O   O17       1.0  0.63700  0.00007  0.33300  1.0000
  O   O18       1.0  0.36300  0.36300  0.33300  1.0000
