data_image0
_chemical_formula_structural       CoN6Na3O12
_chemical_formula_sum              "Co1 N6 Na3 O12"
_cell_length_a       6.24123
_cell_length_b       6.24438
_cell_length_c       6.24425
_cell_angle_alpha    66.4115
_cell_angle_beta     66.407
_cell_angle_gamma    66.3869

_space_group_name_H-M_alt    "P 1"
_space_group_IT_number       1

loop_
  _space_group_symop_operation_xyz
  'x, y, z'

loop_
  _atom_site_type_symbol
  _atom_site_label
  _atom_site_symmetry_multiplicity
  _atom_site_fract_x
  _atom_site_fract_y
  _atom_site_fract_z
  _atom_site_occupancy
  Co  Co1       1.0  0.00000  1.00000  1.00000  1.0000
  N   N1        1.0  0.20500  0.80500  0.19500  1.0000
  N   N2        1.0  0.19500  0.20500  0.80600  1.0000
  N   N3        1.0  0.80600  0.19500  0.20500  1.0000
  N   N4        1.0  0.79500  0.19500  0.80500  1.0000
  N   N5        1.0  0.80500  0.79500  0.19400  1.0000
  N   N6        1.0  0.19400  0.80500  0.79500  1.0000
  Na  Na1       1.0  0.50000  0.50000  0.50000  1.0000
  Na  Na2       1.0  0.25200  0.25200  0.25300  1.0000
  Na  Na3       1.0  0.74900  0.74800  0.74700  1.0000
  O   O1        1.0  0.34300  0.60300  0.16600  1.0000
  O   O2        1.0  0.16600  0.34400  0.60400  1.0000
  O   O3        1.0  0.60400  0.16600  0.34400  1.0000
  O   O4        1.0  0.65600  0.39700  0.83400  1.0000
  O   O5        1.0  0.83400  0.65600  0.39600  1.0000
  O   O6        1.0  0.39600  0.83400  0.65600  1.0000
  O   O7        1.0  0.19900  0.87400  0.35900  1.0000
  O   O8        1.0  0.35800  0.19900  0.87500  1.0000
  O   O9        1.0  0.87400  0.35900  0.19900  1.0000
  O   O10       1.0  0.80100  0.12600  0.64100  1.0000
  O   O11       1.0  0.64200  0.80000  0.12500  1.0000
  O   O12       1.0  0.12600  0.64100  0.80100  1.0000
