data_image0
_chemical_formula_structural       C12Fe2K2N6O6
_chemical_formula_sum              "C12 Fe2 K2 N6 O6"
_cell_length_a       12.4359
_cell_length_b       12.4362
_cell_length_c       12.4362
_cell_angle_alpha    29.4113
_cell_angle_beta     29.4103
_cell_angle_gamma    29.4118

_space_group_name_H-M_alt    "P 1"
_space_group_IT_number       1

loop_
  _space_group_symop_operation_xyz
  'x, y, z'

loop_
  _atom_site_type_symbol
  _atom_site_label
  _atom_site_symmetry_multiplicity
  _atom_site_fract_x
  _atom_site_fract_y
  _atom_site_fract_z
  _atom_site_occupancy
  C   C1        1.0  0.11800  0.87500  0.38200  1.0000
  C   C2        1.0  0.38200  0.11800  0.87500  1.0000
  C   C3        1.0  0.87500  0.38200  0.11800  1.0000
  C   C4        1.0  0.88200  0.12500  0.61800  1.0000
  C   C5        1.0  0.61800  0.88200  0.12500  1.0000
  C   C6        1.0  0.12500  0.61800  0.88200  1.0000
  C   C7        1.0  0.30900  0.82800  0.07220  1.0000
  C   C8        1.0  0.07220  0.30900  0.82800  1.0000
  C   C9        1.0  0.82800  0.07210  0.30900  1.0000
  C   C10       1.0  0.69100  0.17200  0.92800  1.0000
  C   C11       1.0  0.92800  0.69100  0.17200  1.0000
  C   C12       1.0  0.17200  0.92800  0.69100  1.0000
  Fe  Fe1       1.0  0.10200  0.10200  0.10200  1.0000
  Fe  Fe2       1.0  0.89800  0.89800  0.89800  1.0000
  K   K1        1.0  0.66700  0.66700  0.66700  1.0000
  K   K2        1.0  0.33300  0.33300  0.33300  1.0000
  N   N1        1.0  0.44400  0.65700  0.05370  1.0000
  N   N2        1.0  0.05370  0.44400  0.65700  1.0000
  N   N3        1.0  0.65700  0.05370  0.44400  1.0000
  N   N4        1.0  0.55600  0.34300  0.94600  1.0000
  N   N5        1.0  0.94600  0.55600  0.34300  1.0000
  N   N6        1.0  0.34300  0.94600  0.55600  1.0000
  O   O1        1.0  0.12100  0.72000  0.56700  1.0000
  O   O2        1.0  0.56700  0.12100  0.72000  1.0000
  O   O3        1.0  0.72000  0.56700  0.12100  1.0000
  O   O4        1.0  0.87900  0.28000  0.43300  1.0000
  O   O5        1.0  0.43300  0.87900  0.28000  1.0000
  O   O6        1.0  0.28000  0.43300  0.87900  1.0000
