data_image0
_chemical_formula_structural       Cl18K2Nb6Sr
_chemical_formula_sum              "Cl18 K2 Nb6 Sr1"
_cell_length_a       10.1575
_cell_length_b       10.1587
_cell_length_c       10.1575
_cell_angle_alpha    54.4018
_cell_angle_beta     54.4042
_cell_angle_gamma    54.4034

_space_group_name_H-M_alt    "P 1"
_space_group_IT_number       1

loop_
  _space_group_symop_operation_xyz
  'x, y, z'

loop_
  _atom_site_type_symbol
  _atom_site_label
  _atom_site_symmetry_multiplicity
  _atom_site_fract_x
  _atom_site_fract_y
  _atom_site_fract_z
  _atom_site_occupancy
  Cl  Cl1       1.0  0.42400  0.83700  0.73700  1.0000
  Cl  Cl2       1.0  0.73700  0.42400  0.83700  1.0000
  Cl  Cl3       1.0  0.83700  0.73700  0.42400  1.0000
  Cl  Cl4       1.0  0.57600  0.16300  0.26300  1.0000
  Cl  Cl5       1.0  0.26300  0.57600  0.16300  1.0000
  Cl  Cl6       1.0  0.16300  0.26300  0.57600  1.0000
  Cl  Cl7       1.0  0.33700  0.91500  0.07730  1.0000
  Cl  Cl8       1.0  0.07730  0.33700  0.91500  1.0000
  Cl  Cl9       1.0  0.91500  0.07730  0.33700  1.0000
  Cl  Cl10      1.0  0.66300  0.08500  0.92300  1.0000
  Cl  Cl11      1.0  0.92300  0.66300  0.08500  1.0000
  Cl  Cl12      1.0  0.08500  0.92300  0.66300  1.0000
  Cl  Cl13      1.0  0.48900  0.15700  0.66500  1.0000
  Cl  Cl14      1.0  0.66500  0.48900  0.15700  1.0000
  Cl  Cl15      1.0  0.15700  0.66500  0.48900  1.0000
  Cl  Cl16      1.0  0.51100  0.84300  0.33500  1.0000
  Cl  Cl17      1.0  0.33500  0.51100  0.84300  1.0000
  Cl  Cl18      1.0  0.84300  0.33500  0.51100  1.0000
  K   K1        1.0  0.77900  0.77900  0.77900  1.0000
  K   K2        1.0  0.22100  0.22200  0.22100  1.0000
  Nb  Nb1       1.0  0.21300  0.07370  0.85200  1.0000
  Nb  Nb2       1.0  0.85200  0.21300  0.07370  1.0000
  Nb  Nb3       1.0  0.07370  0.85100  0.21300  1.0000
  Nb  Nb4       1.0  0.78700  0.92600  0.14800  1.0000
  Nb  Nb5       1.0  0.14800  0.78700  0.92600  1.0000
  Nb  Nb6       1.0  0.92600  0.14800  0.78700  1.0000
  Sr  Sr1       1.0  0.50000  0.50000  0.50000  1.0000
