data_image0
_chemical_formula_structural       H16K8Li8O40W8
_chemical_formula_sum              "H16 K8 Li8 O40 W8"
_cell_length_a       10.0786
_cell_length_b       7.44063
_cell_length_c       12.547
_cell_angle_alpha    90
_cell_angle_beta     90
_cell_angle_gamma    90

_space_group_name_H-M_alt    "P 1"
_space_group_IT_number       1

loop_
  _space_group_symop_operation_xyz
  'x, y, z'

loop_
  _atom_site_type_symbol
  _atom_site_label
  _atom_site_symmetry_multiplicity
  _atom_site_fract_x
  _atom_site_fract_y
  _atom_site_fract_z
  _atom_site_occupancy
  H   H1        1.0  0.96400  0.24800  0.14100  1.0000
  H   H2        1.0  0.53600  0.75200  0.64100  1.0000
  H   H3        1.0  0.46400  0.25200  0.85900  1.0000
  H   H4        1.0  0.03560  0.74800  0.35900  1.0000
  H   H5        1.0  0.03560  0.75200  0.85900  1.0000
  H   H6        1.0  0.46400  0.24800  0.35900  1.0000
  H   H7        1.0  0.53600  0.74800  0.14100  1.0000
  H   H8        1.0  0.96400  0.25200  0.64100  1.0000
  H   H9        1.0  0.93900  0.15500  0.02960  1.0000
  H   H10       1.0  0.56100  0.84500  0.53000  1.0000
  H   H11       1.0  0.43900  0.34500  0.97000  1.0000
  H   H12       1.0  0.06120  0.65500  0.47000  1.0000
  H   H13       1.0  0.06120  0.84500  0.97000  1.0000
  H   H14       1.0  0.43900  0.15500  0.47000  1.0000
  H   H15       1.0  0.56100  0.65500  0.02960  1.0000
  H   H16       1.0  0.93900  0.34500  0.53000  1.0000
  K   K1        1.0  0.20500  0.32500  0.36200  1.0000
  K   K2        1.0  0.29500  0.67500  0.86200  1.0000
  K   K3        1.0  0.70500  0.17500  0.63800  1.0000
  K   K4        1.0  0.79500  0.82500  0.13800  1.0000
  K   K5        1.0  0.79500  0.67500  0.63800  1.0000
  K   K6        1.0  0.70500  0.32500  0.13800  1.0000
  K   K7        1.0  0.29500  0.82500  0.36200  1.0000
  K   K8        1.0  0.20500  0.17500  0.86200  1.0000
  Li  Li1       1.0  0.43200  0.48800  0.17100  1.0000
  Li  Li2       1.0  0.06800  0.51200  0.67100  1.0000
  Li  Li3       1.0  0.93200  0.01250  0.82900  1.0000
  Li  Li4       1.0  0.56800  0.98800  0.32900  1.0000
  Li  Li5       1.0  0.56800  0.51200  0.82900  1.0000
  Li  Li6       1.0  0.93200  0.48800  0.32900  1.0000
  Li  Li7       1.0  0.06800  0.98800  0.17100  1.0000
  Li  Li8       1.0  0.43200  0.01250  0.67100  1.0000
  O   O1        1.0  0.93500  0.13100  0.10800  1.0000
  O   O2        1.0  0.56500  0.86900  0.60800  1.0000
  O   O3        1.0  0.43500  0.36900  0.89200  1.0000
  O   O4        1.0  0.06480  0.63100  0.39200  1.0000
  O   O5        1.0  0.06480  0.86900  0.89200  1.0000
  O   O6        1.0  0.43500  0.13100  0.39200  1.0000
  O   O7        1.0  0.56500  0.63100  0.10800  1.0000
  O   O8        1.0  0.93500  0.36900  0.60800  1.0000
  O   O9        1.0  0.00673  0.42500  0.19600  1.0000
  O   O10       1.0  0.49300  0.57500  0.69600  1.0000
  O   O11       1.0  0.50700  0.07510  0.80400  1.0000
  O   O12       1.0  0.99300  0.92500  0.30400  1.0000
  O   O13       1.0  0.99300  0.57500  0.80400  1.0000
  O   O14       1.0  0.50700  0.42500  0.30400  1.0000
  O   O15       1.0  0.49300  0.92500  0.19600  1.0000
  O   O16       1.0  0.00673  0.07510  0.69600  1.0000
  O   O17       1.0  0.05640  0.77800  0.09110  1.0000
  O   O18       1.0  0.44400  0.22200  0.59100  1.0000
  O   O19       1.0  0.55600  0.72200  0.90900  1.0000
  O   O20       1.0  0.94400  0.27800  0.40900  1.0000
  O   O21       1.0  0.94400  0.22200  0.90900  1.0000
  O   O22       1.0  0.55600  0.77800  0.40900  1.0000
  O   O23       1.0  0.44400  0.27800  0.09110  1.0000
  O   O24       1.0  0.05640  0.72200  0.59100  1.0000
  O   O25       1.0  0.16300  0.44900  0.99800  1.0000
  O   O26       1.0  0.33700  0.55100  0.49800  1.0000
  O   O27       1.0  0.66300  0.05060  0.00189  1.0000
  O   O28       1.0  0.83700  0.94900  0.50200  1.0000
  O   O29       1.0  0.83700  0.55100  0.00189  1.0000
  O   O30       1.0  0.66300  0.44900  0.50200  1.0000
  O   O31       1.0  0.33700  0.94900  0.99800  1.0000
  O   O32       1.0  0.16300  0.05060  0.49800  1.0000
  O   O33       1.0  0.26800  0.58900  0.19900  1.0000
  O   O34       1.0  0.23200  0.41100  0.69900  1.0000
  O   O35       1.0  0.76800  0.91100  0.80100  1.0000
  O   O36       1.0  0.73200  0.08890  0.30100  1.0000
  O   O37       1.0  0.73200  0.41100  0.80100  1.0000
  O   O38       1.0  0.76800  0.58900  0.30100  1.0000
  O   O39       1.0  0.23200  0.08890  0.19900  1.0000
  O   O40       1.0  0.26800  0.91100  0.69900  1.0000
  W   W1        1.0  0.12200  0.55900  0.11900  1.0000
  W   W2        1.0  0.37800  0.44100  0.61900  1.0000
  W   W3        1.0  0.62200  0.94100  0.88100  1.0000
  W   W4        1.0  0.87800  0.05860  0.38100  1.0000
  W   W5        1.0  0.87800  0.44100  0.88100  1.0000
  W   W6        1.0  0.62200  0.55900  0.38100  1.0000
  W   W7        1.0  0.37800  0.05860  0.11900  1.0000
  W   W8        1.0  0.12200  0.94100  0.61900  1.0000
