data_image0
_chemical_formula_structural       Mn4O20Te8
_chemical_formula_sum              "Mn4 O20 Te8"
_cell_length_a       7.27822
_cell_length_b       10.7493
_cell_length_c       6.06823
_cell_angle_alpha    90
_cell_angle_beta     90
_cell_angle_gamma    90

_space_group_name_H-M_alt    "P 1"
_space_group_IT_number       1

loop_
  _space_group_symop_operation_xyz
  'x, y, z'

loop_
  _atom_site_type_symbol
  _atom_site_label
  _atom_site_symmetry_multiplicity
  _atom_site_fract_x
  _atom_site_fract_y
  _atom_site_fract_z
  _atom_site_occupancy
  Mn  Mn1       1.0  0.00000  0.05580  0.25000  1.0000
  Mn  Mn2       1.0  0.50000  0.44400  0.75000  1.0000
  Mn  Mn3       1.0  0.00000  0.94400  0.75000  1.0000
  Mn  Mn4       1.0  0.50000  0.55600  0.25000  1.0000
  O   O1        1.0  0.34200  0.43600  0.45500  1.0000
  O   O2        1.0  0.15800  0.06350  0.95500  1.0000
  O   O3        1.0  0.84200  0.06350  0.54500  1.0000
  O   O4        1.0  0.65800  0.43600  0.04510  1.0000
  O   O5        1.0  0.65800  0.56400  0.54500  1.0000
  O   O6        1.0  0.84200  0.93600  0.04510  1.0000
  O   O7        1.0  0.15800  0.93600  0.45500  1.0000
  O   O8        1.0  0.34200  0.56400  0.95500  1.0000
  O   O9        1.0  0.19800  0.20900  0.31100  1.0000
  O   O10       1.0  0.30200  0.29100  0.81100  1.0000
  O   O11       1.0  0.69800  0.29100  0.68900  1.0000
  O   O12       1.0  0.80200  0.20900  0.18900  1.0000
  O   O13       1.0  0.80200  0.79100  0.68900  1.0000
  O   O14       1.0  0.69800  0.70900  0.18900  1.0000
  O   O15       1.0  0.30200  0.70900  0.31100  1.0000
  O   O16       1.0  0.19800  0.79100  0.81100  1.0000
  O   O17       1.0  0.00000  0.44100  0.25000  1.0000
  O   O18       1.0  0.50000  0.05910  0.75000  1.0000
  O   O19       1.0  0.00000  0.55900  0.75000  1.0000
  O   O20       1.0  0.50000  0.94100  0.25000  1.0000
  Te  Te1       1.0  0.12700  0.34400  0.49300  1.0000
  Te  Te2       1.0  0.37300  0.15600  0.99300  1.0000
  Te  Te3       1.0  0.62700  0.15600  0.50700  1.0000
  Te  Te4       1.0  0.87300  0.34400  0.00706  1.0000
  Te  Te5       1.0  0.87300  0.65600  0.50700  1.0000
  Te  Te6       1.0  0.62700  0.84400  0.00706  1.0000
  Te  Te7       1.0  0.37300  0.84400  0.49300  1.0000
  Te  Te8       1.0  0.12700  0.65600  0.99300  1.0000
