data_image0
_chemical_formula_structural       Hg2I4
_chemical_formula_sum              "Hg2 I4"
_cell_length_a       4.45586
_cell_length_b       4.45586
_cell_length_c       14.0789
_cell_angle_alpha    90
_cell_angle_beta     90
_cell_angle_gamma    115.94

_space_group_name_H-M_alt    "P 1"
_space_group_IT_number       1

loop_
  _space_group_symop_operation_xyz
  'x, y, z'

loop_
  _atom_site_type_symbol
  _atom_site_label
  _atom_site_symmetry_multiplicity
  _atom_site_fract_x
  _atom_site_fract_y
  _atom_site_fract_z
  _atom_site_occupancy
  Hg  Hg1       1.0  0.34300  0.65700  0.49900  1.0000
  Hg  Hg2       1.0  0.65700  0.34300  0.99900  1.0000
  I   I1        1.0  0.91000  0.09050  0.13200  1.0000
  I   I2        1.0  0.59500  0.40500  0.36600  1.0000
  I   I3        1.0  0.09050  0.91000  0.63200  1.0000
  I   I4        1.0  0.40500  0.59500  0.86600  1.0000
