data_image0
_chemical_formula_structural       Bi6CaO20P4
_chemical_formula_sum              "Bi6 Ca1 O20 P4"
_cell_length_a       6.79645
_cell_length_b       7.43001
_cell_length_c       8.95701
_cell_angle_alpha    107.395
_cell_angle_beta     93.786
_cell_angle_gamma    112.422

_space_group_name_H-M_alt    "P 1"
_space_group_IT_number       1

loop_
  _space_group_symop_operation_xyz
  'x, y, z'

loop_
  _atom_site_type_symbol
  _atom_site_label
  _atom_site_symmetry_multiplicity
  _atom_site_fract_x
  _atom_site_fract_y
  _atom_site_fract_z
  _atom_site_occupancy
  Bi  Bi1       1.0  0.42700  0.28000  0.08250  1.0000
  Bi  Bi2       1.0  0.57300  0.72000  0.91800  1.0000
  Bi  Bi3       1.0  0.18000  0.19900  0.66700  1.0000
  Bi  Bi4       1.0  0.82000  0.80100  0.33300  1.0000
  Bi  Bi5       1.0  0.66900  0.36400  0.49800  1.0000
  Bi  Bi6       1.0  0.33100  0.63600  0.50200  1.0000
  Ca  Ca1       1.0  1.00000  0.50000  1.00000  1.0000
  O   O1        1.0  0.12600  0.00877  0.84300  1.0000
  O   O2        1.0  0.87400  0.99100  0.15700  1.0000
  O   O3        1.0  0.24100  0.70600  0.76300  1.0000
  O   O4        1.0  0.75900  0.29400  0.23700  1.0000
  O   O5        1.0  0.12700  0.73800  0.27800  1.0000
  O   O6        1.0  0.87300  0.26200  0.72200  1.0000
  O   O7        1.0  0.53600  0.90300  0.35200  1.0000
  O   O8        1.0  0.46400  0.09750  0.64800  1.0000
  O   O9        1.0  0.96200  0.70900  0.57700  1.0000
  O   O10       1.0  0.03770  0.29100  0.42300  1.0000
  O   O11       1.0  0.33800  0.12000  0.32700  1.0000
  O   O12       1.0  0.66200  0.88000  0.67300  1.0000
  O   O13       1.0  0.33400  0.84000  0.07790  1.0000
  O   O14       1.0  0.66600  0.16000  0.92200  1.0000
  O   O15       1.0  0.87700  0.65200  0.83600  1.0000
  O   O16       1.0  0.12300  0.34800  0.16400  1.0000
  O   O17       1.0  0.30600  0.41700  0.90800  1.0000
  O   O18       1.0  0.69400  0.58300  0.09220  1.0000
  O   O19       1.0  0.55300  0.52600  0.36000  1.0000
  O   O20       1.0  0.44700  0.47400  0.64000  1.0000
  P   P1        1.0  0.33700  0.90300  0.25800  1.0000
  P   P2        1.0  0.66300  0.09730  0.74200  1.0000
  P   P3        1.0  0.05240  0.77300  0.75900  1.0000
  P   P4        1.0  0.94800  0.22700  0.24100  1.0000
