data_image0
_chemical_formula_structural       I4Np4O20
_chemical_formula_sum              "I4 Np4 O20"
_cell_length_a       13.4502
_cell_length_b       5.65731
_cell_length_c       5.15843
_cell_angle_alpha    90
_cell_angle_beta     90
_cell_angle_gamma    90

_space_group_name_H-M_alt    "P 1"
_space_group_IT_number       1

loop_
  _space_group_symop_operation_xyz
  'x, y, z'

loop_
  _atom_site_type_symbol
  _atom_site_label
  _atom_site_symmetry_multiplicity
  _atom_site_fract_x
  _atom_site_fract_y
  _atom_site_fract_z
  _atom_site_occupancy
  I   I1        1.0  0.28000  0.01880  0.06870  1.0000
  I   I2        1.0  0.72000  0.98100  0.56900  1.0000
  I   I3        1.0  0.22000  0.51900  0.56900  1.0000
  I   I4        1.0  0.78000  0.48100  0.06870  1.0000
  Np  Np1       1.0  0.52800  0.73300  0.08350  1.0000
  Np  Np2       1.0  0.47200  0.26700  0.58400  1.0000
  Np  Np3       1.0  0.97200  0.23300  0.58400  1.0000
  Np  Np4       1.0  0.02780  0.76700  0.08350  1.0000
  O   O1        1.0  0.49900  0.41800  0.99000  1.0000
  O   O2        1.0  0.50100  0.58200  0.49000  1.0000
  O   O3        1.0  0.00143  0.91800  0.49000  1.0000
  O   O4        1.0  0.99900  0.08190  0.99000  1.0000
  O   O5        1.0  0.56200  0.02270  0.25100  1.0000
  O   O6        1.0  0.43800  0.97700  0.75100  1.0000
  O   O7        1.0  0.93800  0.52300  0.75100  1.0000
  O   O8        1.0  0.06200  0.47700  0.25100  1.0000
  O   O9        1.0  0.32500  0.24900  0.29800  1.0000
  O   O10       1.0  0.67500  0.75100  0.79800  1.0000
  O   O11       1.0  0.17500  0.74900  0.79800  1.0000
  O   O12       1.0  0.82500  0.25100  0.29800  1.0000
  O   O13       1.0  0.17200  0.94400  0.26900  1.0000
  O   O14       1.0  0.82800  0.05620  0.76900  1.0000
  O   O15       1.0  0.32800  0.44400  0.76900  1.0000
  O   O16       1.0  0.67200  0.55600  0.26900  1.0000
  O   O17       1.0  0.35700  0.78400  0.20300  1.0000
  O   O18       1.0  0.64300  0.21600  0.70300  1.0000
  O   O19       1.0  0.14300  0.28400  0.70300  1.0000
  O   O20       1.0  0.85700  0.71600  0.20300  1.0000
