data_image0
_chemical_formula_structural       Ag4Np4O20Se4
_chemical_formula_sum              "Ag4 Np4 O20 Se4"
_cell_length_a       4.24067
_cell_length_b       9.28384
_cell_length_c       11.083
_cell_angle_alpha    90
_cell_angle_beta     98.2772
_cell_angle_gamma    90

_space_group_name_H-M_alt    "P 1"
_space_group_IT_number       1

loop_
  _space_group_symop_operation_xyz
  'x, y, z'

loop_
  _atom_site_type_symbol
  _atom_site_label
  _atom_site_symmetry_multiplicity
  _atom_site_fract_x
  _atom_site_fract_y
  _atom_site_fract_z
  _atom_site_occupancy
  Ag  Ag1       1.0  0.17800  0.10500  0.59000  1.0000
  Ag  Ag2       1.0  0.32200  0.60500  0.91000  1.0000
  Ag  Ag3       1.0  0.82200  0.89500  0.41000  1.0000
  Ag  Ag4       1.0  0.67800  0.39500  0.08990  1.0000
  Np  Np1       1.0  0.24600  0.15700  0.25100  1.0000
  Np  Np2       1.0  0.25400  0.65700  0.24900  1.0000
  Np  Np3       1.0  0.75400  0.84300  0.74900  1.0000
  Np  Np4       1.0  0.74600  0.34300  0.75100  1.0000
  O   O1        1.0  0.18900  0.25900  0.10200  1.0000
  O   O2        1.0  0.31100  0.75900  0.39800  1.0000
  O   O3        1.0  0.81100  0.74100  0.89800  1.0000
  O   O4        1.0  0.68900  0.24100  0.60200  1.0000
  O   O5        1.0  0.30300  0.05610  0.39800  1.0000
  O   O6        1.0  0.19700  0.55600  0.10200  1.0000
  O   O7        1.0  0.69700  0.94400  0.60200  1.0000
  O   O8        1.0  0.80300  0.44400  0.89800  1.0000
  O   O9        1.0  0.17100  0.91300  0.12200  1.0000
  O   O10       1.0  0.32900  0.41300  0.37800  1.0000
  O   O11       1.0  0.82900  0.08750  0.87800  1.0000
  O   O12       1.0  0.67100  0.58700  0.62200  1.0000
  O   O13       1.0  0.72200  0.76300  0.18400  1.0000
  O   O14       1.0  0.77800  0.26300  0.31600  1.0000
  O   O15       1.0  0.27800  0.23700  0.81600  1.0000
  O   O16       1.0  0.22200  0.73700  0.68400  1.0000
  O   O17       1.0  0.71700  0.04780  0.19100  1.0000
  O   O18       1.0  0.78300  0.54800  0.30900  1.0000
  O   O19       1.0  0.28300  0.95200  0.80900  1.0000
  O   O20       1.0  0.21700  0.45200  0.69100  1.0000
  Se  Se1       1.0  0.75800  0.90800  0.08950  1.0000
  Se  Se2       1.0  0.74200  0.40800  0.41000  1.0000
  Se  Se3       1.0  0.24200  0.09170  0.91000  1.0000
  Se  Se4       1.0  0.25800  0.59200  0.59000  1.0000
