data_image0
_chemical_formula_structural       Cs4Ge4Se16Sm4
_chemical_formula_sum              "Cs4 Ge4 Se16 Sm4"
_cell_length_a       6.82371
_cell_length_b       7.16141
_cell_length_c       18.7523
_cell_angle_alpha    90
_cell_angle_beta     90
_cell_angle_gamma    90

_space_group_name_H-M_alt    "P 1"
_space_group_IT_number       1

loop_
  _space_group_symop_operation_xyz
  'x, y, z'

loop_
  _atom_site_type_symbol
  _atom_site_label
  _atom_site_symmetry_multiplicity
  _atom_site_fract_x
  _atom_site_fract_y
  _atom_site_fract_z
  _atom_site_occupancy
  Cs  Cs1       1.0  0.99700  0.00722  0.03150  1.0000
  Cs  Cs2       1.0  0.50300  0.99300  0.53200  1.0000
  Cs  Cs3       1.0  0.49700  0.49300  0.96800  1.0000
  Cs  Cs4       1.0  0.00260  0.50700  0.46800  1.0000
  Ge  Ge1       1.0  0.28800  0.98100  0.83500  1.0000
  Ge  Ge2       1.0  0.21200  0.01920  0.33500  1.0000
  Ge  Ge3       1.0  0.78800  0.51900  0.16500  1.0000
  Ge  Ge4       1.0  0.71200  0.48100  0.66500  1.0000
  Se  Se1       1.0  0.39900  0.91100  0.71700  1.0000
  Se  Se2       1.0  0.10100  0.08890  0.21700  1.0000
  Se  Se3       1.0  0.89900  0.58900  0.28300  1.0000
  Se  Se4       1.0  0.60100  0.41100  0.78300  1.0000
  Se  Se5       1.0  0.09390  0.25700  0.84700  1.0000
  Se  Se6       1.0  0.40600  0.74300  0.34700  1.0000
  Se  Se7       1.0  0.59400  0.24300  0.15300  1.0000
  Se  Se8       1.0  0.90600  0.75700  0.65300  1.0000
  Se  Se9       1.0  0.05260  0.73900  0.85500  1.0000
  Se  Se10      1.0  0.44700  0.26100  0.35500  1.0000
  Se  Se11      1.0  0.55300  0.76100  0.14500  1.0000
  Se  Se12      1.0  0.94700  0.23900  0.64500  1.0000
  Se  Se13      1.0  0.43500  0.48400  0.59100  1.0000
  Se  Se14      1.0  0.06510  0.51600  0.09050  1.0000
  Se  Se15      1.0  0.93500  0.01560  0.40900  1.0000
  Se  Se16      1.0  0.56500  0.98400  0.90900  1.0000
  Sm  Sm1       1.0  0.20700  0.51600  0.72700  1.0000
  Sm  Sm2       1.0  0.29300  0.48400  0.22700  1.0000
  Sm  Sm3       1.0  0.70700  0.98400  0.27300  1.0000
  Sm  Sm4       1.0  0.79300  0.01620  0.77300  1.0000
