data_image0
_chemical_formula_structural       H16Li4N4O16Se4
_chemical_formula_sum              "H16 Li4 N4 O16 Se4"
_cell_length_a       5.10032
_cell_length_b       16.3476
_cell_length_c       4.73095
_cell_angle_alpha    90
_cell_angle_beta     90
_cell_angle_gamma    90

_space_group_name_H-M_alt    "P 1"
_space_group_IT_number       1

loop_
  _space_group_symop_operation_xyz
  'x, y, z'

loop_
  _atom_site_type_symbol
  _atom_site_label
  _atom_site_symmetry_multiplicity
  _atom_site_fract_x
  _atom_site_fract_y
  _atom_site_fract_z
  _atom_site_occupancy
  H   H1        1.0  0.27000  0.35800  0.45700  1.0000
  H   H2        1.0  0.73000  0.64200  0.95700  1.0000
  H   H3        1.0  0.23000  0.85800  0.45700  1.0000
  H   H4        1.0  0.77000  0.14200  0.95700  1.0000
  H   H5        1.0  0.97200  0.33400  0.33100  1.0000
  H   H6        1.0  0.02760  0.66600  0.83100  1.0000
  H   H7        1.0  0.52800  0.83400  0.33100  1.0000
  H   H8        1.0  0.47200  0.16600  0.83100  1.0000
  H   H9        1.0  0.22100  0.35100  0.10200  1.0000
  H   H10       1.0  0.77900  0.64900  0.60200  1.0000
  H   H11       1.0  0.27900  0.85100  0.10200  1.0000
  H   H12       1.0  0.72100  0.14900  0.60200  1.0000
  H   H13       1.0  0.22600  0.26500  0.29800  1.0000
  H   H14       1.0  0.77400  0.73500  0.79800  1.0000
  H   H15       1.0  0.27400  0.76500  0.29800  1.0000
  H   H16       1.0  0.72600  0.23500  0.79800  1.0000
  Li  Li1       1.0  0.68400  0.00273  0.37000  1.0000
  Li  Li2       1.0  0.31600  0.99700  0.87000  1.0000
  Li  Li3       1.0  0.81600  0.50300  0.37000  1.0000
  Li  Li4       1.0  0.18400  0.49700  0.87000  1.0000
  N   N1        1.0  0.17100  0.32700  0.29700  1.0000
  N   N2        1.0  0.82900  0.67300  0.79700  1.0000
  N   N3        1.0  0.32900  0.82700  0.29700  1.0000
  N   N4        1.0  0.67100  0.17300  0.79700  1.0000
  O   O1        1.0  0.86800  0.10200  0.28500  1.0000
  O   O2        1.0  0.13200  0.89800  0.78500  1.0000
  O   O3        1.0  0.63200  0.60200  0.28500  1.0000
  O   O4        1.0  0.36800  0.39800  0.78500  1.0000
  O   O5        1.0  0.35400  0.17700  0.26900  1.0000
  O   O6        1.0  0.64600  0.82300  0.76900  1.0000
  O   O7        1.0  0.14600  0.67700  0.26900  1.0000
  O   O8        1.0  0.85400  0.32300  0.76900  1.0000
  O   O9        1.0  0.31800  0.01090  0.27500  1.0000
  O   O10       1.0  0.68200  0.98900  0.77500  1.0000
  O   O11       1.0  0.18200  0.51100  0.27500  1.0000
  O   O12       1.0  0.81800  0.48900  0.77500  1.0000
  O   O13       1.0  0.18400  0.09850  0.73900  1.0000
  O   O14       1.0  0.81600  0.90200  0.23900  1.0000
  O   O15       1.0  0.31600  0.59800  0.73900  1.0000
  O   O16       1.0  0.68400  0.40200  0.23900  1.0000
  Se  Se1       1.0  0.18200  0.09830  0.38700  1.0000
  Se  Se2       1.0  0.81800  0.90200  0.88700  1.0000
  Se  Se3       1.0  0.31800  0.59800  0.38700  1.0000
  Se  Se4       1.0  0.68200  0.40200  0.88700  1.0000
