data_image0
_chemical_formula_structural       Li8N20O60Pr4
_chemical_formula_sum              "Li8 N20 O60 Pr4"
_cell_length_a       8.27558
_cell_length_b       9.92874
_cell_length_c       11.0861
_cell_angle_alpha    90
_cell_angle_beta     90
_cell_angle_gamma    90

_space_group_name_H-M_alt    "P 1"
_space_group_IT_number       1

loop_
  _space_group_symop_operation_xyz
  'x, y, z'

loop_
  _atom_site_type_symbol
  _atom_site_label
  _atom_site_symmetry_multiplicity
  _atom_site_fract_x
  _atom_site_fract_y
  _atom_site_fract_z
  _atom_site_occupancy
  Li  Li1       1.0  0.39500  0.23200  0.17300  1.0000
  Li  Li2       1.0  0.60500  0.76800  0.17300  1.0000
  Li  Li3       1.0  0.89500  0.26800  0.32700  1.0000
  Li  Li4       1.0  0.10500  0.73200  0.32700  1.0000
  Li  Li5       1.0  0.60500  0.76800  0.82700  1.0000
  Li  Li6       1.0  0.39500  0.23200  0.82700  1.0000
  Li  Li7       1.0  0.10500  0.73200  0.67300  1.0000
  Li  Li8       1.0  0.89500  0.26800  0.67300  1.0000
  N   N1        1.0  0.31200  0.35700  0.00000  1.0000
  N   N2        1.0  0.68800  0.64300  0.00000  1.0000
  N   N3        1.0  0.81200  0.14300  0.50000  1.0000
  N   N4        1.0  0.18800  0.85700  0.50000  1.0000
  N   N5        1.0  0.10500  0.15900  0.21200  1.0000
  N   N6        1.0  0.89500  0.84100  0.21200  1.0000
  N   N7        1.0  0.60500  0.34100  0.28800  1.0000
  N   N8        1.0  0.39500  0.65900  0.28800  1.0000
  N   N9        1.0  0.89500  0.84100  0.78800  1.0000
  N   N10       1.0  0.10500  0.15900  0.78800  1.0000
  N   N11       1.0  0.39500  0.65900  0.71200  1.0000
  N   N12       1.0  0.60500  0.34100  0.71200  1.0000
  N   N13       1.0  0.00000  0.50000  0.26700  1.0000
  N   N14       1.0  0.50000  0.00000  0.23300  1.0000
  N   N15       1.0  0.00000  0.50000  0.73300  1.0000
  N   N16       1.0  0.50000  0.00000  0.76700  1.0000
  N   N17       1.0  0.19400  0.75000  0.00000  1.0000
  N   N18       1.0  0.80600  0.25000  0.00000  1.0000
  N   N19       1.0  0.69400  0.75000  0.50000  1.0000
  N   N20       1.0  0.30600  0.25000  0.50000  1.0000
  O   O1        1.0  0.24900  0.39500  0.09890  1.0000
  O   O2        1.0  0.75100  0.60500  0.09890  1.0000
  O   O3        1.0  0.74900  0.10500  0.40100  1.0000
  O   O4        1.0  0.25100  0.89500  0.40100  1.0000
  O   O5        1.0  0.75100  0.60500  0.90100  1.0000
  O   O6        1.0  0.24900  0.39500  0.90100  1.0000
  O   O7        1.0  0.25100  0.89500  0.59900  1.0000
  O   O8        1.0  0.74900  0.10500  0.59900  1.0000
  O   O9        1.0  0.15200  0.23800  0.29100  1.0000
  O   O10       1.0  0.84800  0.76200  0.29100  1.0000
  O   O11       1.0  0.65200  0.26200  0.20900  1.0000
  O   O12       1.0  0.34800  0.73800  0.20900  1.0000
  O   O13       1.0  0.84800  0.76200  0.70900  1.0000
  O   O14       1.0  0.15200  0.23800  0.70900  1.0000
  O   O15       1.0  0.34800  0.73800  0.79100  1.0000
  O   O16       1.0  0.65200  0.26200  0.79100  1.0000
  O   O17       1.0  0.20200  0.11800  0.13000  1.0000
  O   O18       1.0  0.79800  0.88200  0.13000  1.0000
  O   O19       1.0  0.70200  0.38200  0.37000  1.0000
  O   O20       1.0  0.29800  0.61800  0.37000  1.0000
  O   O21       1.0  0.79800  0.88200  0.87000  1.0000
  O   O22       1.0  0.20200  0.11800  0.87000  1.0000
  O   O23       1.0  0.29800  0.61800  0.63000  1.0000
  O   O24       1.0  0.70200  0.38200  0.63000  1.0000
  O   O25       1.0  0.45800  0.37700  0.29300  1.0000
  O   O26       1.0  0.54200  0.62300  0.29300  1.0000
  O   O27       1.0  0.95800  0.12300  0.20700  1.0000
  O   O28       1.0  0.04180  0.87700  0.20700  1.0000
  O   O29       1.0  0.54200  0.62300  0.70700  1.0000
  O   O30       1.0  0.45800  0.37700  0.70700  1.0000
  O   O31       1.0  0.04180  0.87700  0.79300  1.0000
  O   O32       1.0  0.95800  0.12300  0.79300  1.0000
  O   O33       1.0  0.43100  0.27900  0.00000  1.0000
  O   O34       1.0  0.56900  0.72100  0.00000  1.0000
  O   O35       1.0  0.93100  0.22100  0.50000  1.0000
  O   O36       1.0  0.06850  0.77900  0.50000  1.0000
  O   O37       1.0  0.00000  0.50000  0.37700  1.0000
  O   O38       1.0  0.50000  0.00000  0.12300  1.0000
  O   O39       1.0  0.00000  0.50000  0.62300  1.0000
  O   O40       1.0  0.50000  0.00000  0.87700  1.0000
  O   O41       1.0  0.06450  0.59500  0.20400  1.0000
  O   O42       1.0  0.93500  0.40500  0.20400  1.0000
  O   O43       1.0  0.56500  0.90500  0.29600  1.0000
  O   O44       1.0  0.43500  0.09480  0.29600  1.0000
  O   O45       1.0  0.93500  0.40500  0.79600  1.0000
  O   O46       1.0  0.06450  0.59500  0.79600  1.0000
  O   O47       1.0  0.43500  0.09480  0.70400  1.0000
  O   O48       1.0  0.56500  0.90500  0.70400  1.0000
  O   O49       1.0  0.26400  0.63900  0.00000  1.0000
  O   O50       1.0  0.73600  0.36100  0.00000  1.0000
  O   O51       1.0  0.76400  0.86100  0.50000  1.0000
  O   O52       1.0  0.23600  0.13900  0.50000  1.0000
  O   O53       1.0  0.73700  0.13800  0.00000  1.0000
  O   O54       1.0  0.26300  0.86200  0.00000  1.0000
  O   O55       1.0  0.23700  0.36200  0.50000  1.0000
  O   O56       1.0  0.76300  0.63800  0.50000  1.0000
  O   O57       1.0  0.03610  0.74900  0.00000  1.0000
  O   O58       1.0  0.96400  0.25100  0.00000  1.0000
  O   O59       1.0  0.53600  0.75100  0.50000  1.0000
  O   O60       1.0  0.46400  0.24900  0.50000  1.0000
  Pr  Pr1       1.0  0.00000  0.00000  0.00000  1.0000
  Pr  Pr2       1.0  0.50000  0.50000  0.50000  1.0000
  Pr  Pr3       1.0  0.00000  0.50000  0.00000  1.0000
  Pr  Pr4       1.0  0.50000  0.00000  0.50000  1.0000
