data_image0
_chemical_formula_structural       C2Cs2I12Pr6
_chemical_formula_sum              "C2 Cs2 I12 Pr6"
_cell_length_a       9.66439
_cell_length_b       9.68296
_cell_length_c       10.2464
_cell_angle_alpha    71.1853
_cell_angle_beta     84.7511
_cell_angle_gamma    89.2164

_space_group_name_H-M_alt    "P 1"
_space_group_IT_number       1

loop_
  _space_group_symop_operation_xyz
  'x, y, z'

loop_
  _atom_site_type_symbol
  _atom_site_label
  _atom_site_symmetry_multiplicity
  _atom_site_fract_x
  _atom_site_fract_y
  _atom_site_fract_z
  _atom_site_occupancy
  C   C1        1.0  0.00608  0.02470  0.92800  1.0000
  C   C2        1.0  0.99400  0.97500  0.07250  1.0000
  Cs  Cs1       1.0  0.46600  0.36900  0.32800  1.0000
  Cs  Cs2       1.0  0.53400  0.63100  0.67200  1.0000
  I   I1        1.0  0.07290  0.20500  0.32800  1.0000
  I   I2        1.0  0.92700  0.79500  0.67200  1.0000
  I   I3        1.0  0.21200  0.58800  0.00116  1.0000
  I   I4        1.0  0.78800  0.41200  0.99900  1.0000
  I   I5        1.0  0.40800  0.20500  0.99900  1.0000
  I   I6        1.0  0.59200  0.79500  0.00150  1.0000
  I   I7        1.0  0.66400  0.00412  0.33200  1.0000
  I   I8        1.0  0.33600  0.99600  0.66800  1.0000
  I   I9        1.0  0.28200  0.77400  0.32700  1.0000
  I   I10       1.0  0.71800  0.22600  0.67300  1.0000
  I   I11       1.0  0.85000  0.58500  0.32900  1.0000
  I   I12       1.0  0.15000  0.41500  0.67100  1.0000
  Pr  Pr1       1.0  0.91900  0.74800  0.00325  1.0000
  Pr  Pr2       1.0  0.08100  0.25200  0.99700  1.0000
  Pr  Pr3       1.0  0.74700  0.08380  0.00128  1.0000
  Pr  Pr4       1.0  0.25200  0.91600  0.99900  1.0000
  Pr  Pr5       1.0  0.97300  0.89200  0.31500  1.0000
  Pr  Pr6       1.0  0.02660  0.10800  0.68500  1.0000
