data_image0
_chemical_formula_structural       I20Nd8Rb4
_chemical_formula_sum              "I20 Nd8 Rb4"
_cell_length_a       9.87155
_cell_length_b       8.31314
_cell_length_c       14.9563
_cell_angle_alpha    90
_cell_angle_beta     89.8416
_cell_angle_gamma    90

_space_group_name_H-M_alt    "P 1"
_space_group_IT_number       1

loop_
  _space_group_symop_operation_xyz
  'x, y, z'

loop_
  _atom_site_type_symbol
  _atom_site_label
  _atom_site_symmetry_multiplicity
  _atom_site_fract_x
  _atom_site_fract_y
  _atom_site_fract_z
  _atom_site_occupancy
  I   I1        1.0  0.97100  0.18400  0.62400  1.0000
  I   I2        1.0  0.02900  0.68400  0.87600  1.0000
  I   I3        1.0  0.02900  0.81600  0.37600  1.0000
  I   I4        1.0  0.97100  0.31600  0.12400  1.0000
  I   I5        1.0  0.52700  0.18000  0.57300  1.0000
  I   I6        1.0  0.47300  0.68000  0.92700  1.0000
  I   I7        1.0  0.47300  0.82000  0.42700  1.0000
  I   I8        1.0  0.52700  0.32000  0.07320  1.0000
  I   I9        1.0  0.20900  0.05030  0.99700  1.0000
  I   I10       1.0  0.79100  0.55000  0.50300  1.0000
  I   I11       1.0  0.79100  0.95000  0.00296  1.0000
  I   I12       1.0  0.20900  0.45000  0.49700  1.0000
  I   I13       1.0  0.76800  0.36000  0.81100  1.0000
  I   I14       1.0  0.23200  0.86000  0.68900  1.0000
  I   I15       1.0  0.23200  0.64000  0.18900  1.0000
  I   I16       1.0  0.76800  0.14000  0.31100  1.0000
  I   I17       1.0  0.23200  0.34300  0.78600  1.0000
  I   I18       1.0  0.76800  0.84300  0.71400  1.0000
  I   I19       1.0  0.76800  0.65700  0.21400  1.0000
  I   I20       1.0  0.23200  0.15700  0.28600  1.0000
  Nd  Nd1       1.0  0.99500  0.08700  0.83700  1.0000
  Nd  Nd2       1.0  0.00453  0.58700  0.66300  1.0000
  Nd  Nd3       1.0  0.00453  0.91300  0.16300  1.0000
  Nd  Nd4       1.0  0.99500  0.41300  0.33700  1.0000
  Nd  Nd5       1.0  0.20300  0.45500  0.99800  1.0000
  Nd  Nd6       1.0  0.79700  0.95500  0.50200  1.0000
  Nd  Nd7       1.0  0.79700  0.54500  0.00206  1.0000
  Nd  Nd8       1.0  0.20300  0.04490  0.49800  1.0000
  Rb  Rb1       1.0  0.50300  0.07090  0.83400  1.0000
  Rb  Rb2       1.0  0.49700  0.57100  0.66600  1.0000
  Rb  Rb3       1.0  0.49700  0.92900  0.16600  1.0000
  Rb  Rb4       1.0  0.50300  0.42900  0.33400  1.0000
