data_image0
_chemical_formula_structural       B6In2Ni21
_chemical_formula_sum              "B6 In2 Ni21"
_cell_length_a       7.50516
_cell_length_b       7.50516
_cell_length_c       7.50516
_cell_angle_alpha    60
_cell_angle_beta     60
_cell_angle_gamma    60

_space_group_name_H-M_alt    "P 1"
_space_group_IT_number       1

loop_
  _space_group_symop_operation_xyz
  'x, y, z'

loop_
  _atom_site_type_symbol
  _atom_site_label
  _atom_site_symmetry_multiplicity
  _atom_site_fract_x
  _atom_site_fract_y
  _atom_site_fract_z
  _atom_site_occupancy
  B   B1        1.0  0.72700  0.27300  0.72700  1.0000
  B   B2        1.0  0.27300  0.27300  0.72700  1.0000
  B   B3        1.0  0.27300  0.72700  0.27300  1.0000
  B   B4        1.0  0.27300  0.72700  0.72700  1.0000
  B   B5        1.0  0.72700  0.27300  0.27300  1.0000
  B   B6        1.0  0.72700  0.72700  0.27300  1.0000
  In  In1       1.0  0.25000  0.25000  0.25000  1.0000
  In  In2       1.0  0.75000  0.75000  0.75000  1.0000
  Ni  Ni1       1.0  0.38600  0.38600  0.38600  1.0000
  Ni  Ni2       1.0  0.38600  0.38600  0.84100  1.0000
  Ni  Ni3       1.0  0.84100  0.38600  0.38600  1.0000
  Ni  Ni4       1.0  0.38600  0.84100  0.38600  1.0000
  Ni  Ni5       1.0  0.61400  0.61400  0.61400  1.0000
  Ni  Ni6       1.0  0.61400  0.61400  0.15900  1.0000
  Ni  Ni7       1.0  0.61400  0.15900  0.61400  1.0000
  Ni  Ni8       1.0  0.15900  0.61400  0.61400  1.0000
  Ni  Ni9       1.0  0.33600  0.00000  0.00000  1.0000
  Ni  Ni10      1.0  0.00000  0.33600  0.66400  1.0000
  Ni  Ni11      1.0  0.66400  0.00000  0.00000  1.0000
  Ni  Ni12      1.0  0.00000  0.66400  0.33600  1.0000
  Ni  Ni13      1.0  0.00000  0.33600  0.00000  1.0000
  Ni  Ni14      1.0  0.00000  0.00000  0.33600  1.0000
  Ni  Ni15      1.0  0.33600  0.00000  0.66400  1.0000
  Ni  Ni16      1.0  0.33600  0.66400  0.00000  1.0000
  Ni  Ni17      1.0  0.66400  0.00000  0.33600  1.0000
  Ni  Ni18      1.0  0.00000  0.00000  0.66400  1.0000
  Ni  Ni19      1.0  0.00000  0.66400  0.00000  1.0000
  Ni  Ni20      1.0  0.66400  0.33600  0.00000  1.0000
  Ni  Ni21      1.0  0.00000  0.00000  0.00000  1.0000
