data_image0
_chemical_formula_structural       H20K4Li2O38V10
_chemical_formula_sum              "H20 K4 Li2 O38 V10"
_cell_length_a       7.87621
_cell_length_b       9.29515
_cell_length_c       9.81307
_cell_angle_alpha    70.8476
_cell_angle_beta     85.557
_cell_angle_gamma    68.7618

_space_group_name_H-M_alt    "P 1"
_space_group_IT_number       1

loop_
  _space_group_symop_operation_xyz
  'x, y, z'

loop_
  _atom_site_type_symbol
  _atom_site_label
  _atom_site_symmetry_multiplicity
  _atom_site_fract_x
  _atom_site_fract_y
  _atom_site_fract_z
  _atom_site_occupancy
  H   H1        1.0  0.51100  0.57800  0.83600  1.0000
  H   H2        1.0  0.48900  0.42200  0.16400  1.0000
  H   H3        1.0  0.70000  0.62200  0.54700  1.0000
  H   H4        1.0  0.30000  0.37800  0.45300  1.0000
  H   H5        1.0  0.38300  0.76400  0.79400  1.0000
  H   H6        1.0  0.61700  0.23600  0.20600  1.0000
  H   H7        1.0  0.88600  0.60700  0.76700  1.0000
  H   H8        1.0  0.11400  0.39300  0.23300  1.0000
  H   H9        1.0  0.40100  0.05580  0.73800  1.0000
  H   H10       1.0  0.59900  0.94400  0.26200  1.0000
  H   H11       1.0  0.90800  0.77000  0.67200  1.0000
  H   H12       1.0  0.09190  0.23000  0.32800  1.0000
  H   H13       1.0  0.77700  0.93100  0.45100  1.0000
  H   H14       1.0  0.22300  0.06920  0.54900  1.0000
  H   H15       1.0  0.61100  0.69300  0.39200  1.0000
  H   H16       1.0  0.38900  0.30700  0.60800  1.0000
  H   H17       1.0  0.60600  0.02060  0.74600  1.0000
  H   H18       1.0  0.39400  0.97900  0.25400  1.0000
  H   H19       1.0  0.71700  0.04250  0.55100  1.0000
  H   H20       1.0  0.28300  0.95800  0.44900  1.0000
  K   K1        1.0  0.27700  0.66600  0.57300  1.0000
  K   K2        1.0  0.72300  0.33400  0.42700  1.0000
  K   K3        1.0  0.68100  0.69400  0.96900  1.0000
  K   K4        1.0  0.31900  0.30600  0.03060  1.0000
  Li  Li1       1.0  0.56900  0.84600  0.61300  1.0000
  Li  Li2       1.0  0.43100  0.15400  0.38700  1.0000
  O   O1        1.0  0.60700  0.71800  0.48200  1.0000
  O   O2        1.0  0.39300  0.28200  0.51800  1.0000
  O   O3        1.0  0.48100  0.68400  0.76000  1.0000
  O   O4        1.0  0.51900  0.31600  0.24000  1.0000
  O   O5        1.0  0.60200  0.10500  0.94200  1.0000
  O   O6        1.0  0.39800  0.89500  0.05760  1.0000
  O   O7        1.0  0.89500  0.86600  0.89800  1.0000
  O   O8        1.0  0.10500  0.13400  0.10200  1.0000
  O   O9        1.0  0.76700  0.41700  0.67300  1.0000
  O   O10       1.0  0.23300  0.58300  0.32700  1.0000
  O   O11       1.0  0.92200  0.13600  0.89300  1.0000
  O   O12       1.0  0.07840  0.86400  0.10700  1.0000
  O   O13       1.0  0.43700  0.38100  0.73100  1.0000
  O   O14       1.0  0.56300  0.61900  0.26900  1.0000
  O   O15       1.0  0.80300  0.10300  0.15100  1.0000
  O   O16       1.0  0.19700  0.89700  0.84900  1.0000
  O   O17       1.0  0.82900  0.39500  0.14600  1.0000
  O   O18       1.0  0.17100  0.60500  0.85400  1.0000
  O   O19       1.0  0.01490  0.90200  0.62600  1.0000
  O   O20       1.0  0.98500  0.09810  0.37400  1.0000
  O   O21       1.0  0.08700  0.47300  0.61700  1.0000
  O   O22       1.0  0.91300  0.52700  0.38300  1.0000
  O   O23       1.0  0.67200  0.01340  0.47800  1.0000
  O   O24       1.0  0.32800  0.98700  0.52200  1.0000
  O   O25       1.0  0.51800  0.96500  0.75500  1.0000
  O   O26       1.0  0.48200  0.03460  0.24500  1.0000
  O   O27       1.0  0.81700  0.71800  0.70200  1.0000
  O   O28       1.0  0.18300  0.28200  0.29800  1.0000
  O   O29       1.0  0.05050  0.18200  0.62700  1.0000
  O   O30       1.0  0.95000  0.81800  0.37300  1.0000
  O   O31       1.0  0.63900  0.37700  0.93900  1.0000
  O   O32       1.0  0.36100  0.62300  0.06120  1.0000
  O   O33       1.0  0.73200  0.13900  0.68600  1.0000
  O   O34       1.0  0.26800  0.86100  0.31400  1.0000
  O   O35       1.0  0.96100  0.41400  0.88300  1.0000
  O   O36       1.0  0.03930  0.58600  0.11700  1.0000
  O   O37       1.0  0.23500  0.18100  0.83600  1.0000
  O   O38       1.0  0.76500  0.81900  0.16400  1.0000
  V   V1        1.0  0.80400  0.97900  0.03110  1.0000
  V   V2        1.0  0.19600  0.02110  0.96900  1.0000
  V   V3        1.0  0.86500  0.29800  0.03050  1.0000
  V   V4        1.0  0.13500  0.70200  0.97000  1.0000
  V   V5        1.0  0.97300  0.01780  0.72700  1.0000
  V   V6        1.0  0.02720  0.98200  0.27300  1.0000
  V   V7        1.0  0.64900  0.29100  0.79000  1.0000
  V   V8        1.0  0.35100  0.70900  0.21000  1.0000
  V   V9        1.0  0.01500  0.33600  0.72200  1.0000
  V   V10       1.0  0.98500  0.66400  0.27800  1.0000
