data_image0
_chemical_formula_structural       Ba12Ge16
_chemical_formula_sum              "Ba12 Ge16"
_cell_length_a       8.47157
_cell_length_b       8.47157
_cell_length_c       12.1703
_cell_angle_alpha    90
_cell_angle_beta     90
_cell_angle_gamma    90

_space_group_name_H-M_alt    "P 1"
_space_group_IT_number       1

loop_
  _space_group_symop_operation_xyz
  'x, y, z'

loop_
  _atom_site_type_symbol
  _atom_site_label
  _atom_site_symmetry_multiplicity
  _atom_site_fract_x
  _atom_site_fract_y
  _atom_site_fract_z
  _atom_site_occupancy
  Ba  Ba1       1.0  0.00000  0.00000  0.33500  1.0000
  Ba  Ba2       1.0  0.50000  0.50000  0.16500  1.0000
  Ba  Ba3       1.0  0.00000  0.00000  0.66500  1.0000
  Ba  Ba4       1.0  0.50000  0.50000  0.83500  1.0000
  Ba  Ba5       1.0  0.00000  0.50000  0.25000  1.0000
  Ba  Ba6       1.0  0.50000  0.00000  0.25000  1.0000
  Ba  Ba7       1.0  0.50000  0.00000  0.75000  1.0000
  Ba  Ba8       1.0  0.00000  0.50000  0.75000  1.0000
  Ba  Ba9       1.0  0.83800  0.16200  0.00000  1.0000
  Ba  Ba10      1.0  0.16200  0.83800  0.00000  1.0000
  Ba  Ba11      1.0  0.33800  0.33800  0.50000  1.0000
  Ba  Ba12      1.0  0.66200  0.66200  0.50000  1.0000
  Ge  Ge1       1.0  0.20300  0.20300  0.14400  1.0000
  Ge  Ge2       1.0  0.79700  0.79700  0.14400  1.0000
  Ge  Ge3       1.0  0.70300  0.29700  0.35600  1.0000
  Ge  Ge4       1.0  0.29700  0.70300  0.35600  1.0000
  Ge  Ge5       1.0  0.79700  0.79700  0.85600  1.0000
  Ge  Ge6       1.0  0.20300  0.20300  0.85600  1.0000
  Ge  Ge7       1.0  0.70300  0.29700  0.64400  1.0000
  Ge  Ge8       1.0  0.29700  0.70300  0.64400  1.0000
  Ge  Ge9       1.0  0.42900  0.16900  0.00000  1.0000
  Ge  Ge10      1.0  0.57100  0.83100  0.00000  1.0000
  Ge  Ge11      1.0  0.92900  0.33100  0.50000  1.0000
  Ge  Ge12      1.0  0.07120  0.66900  0.50000  1.0000
  Ge  Ge13      1.0  0.83100  0.57100  0.00000  1.0000
  Ge  Ge14      1.0  0.16900  0.42900  0.00000  1.0000
  Ge  Ge15      1.0  0.66900  0.07120  0.50000  1.0000
  Ge  Ge16      1.0  0.33100  0.92900  0.50000  1.0000
