data_image0
_chemical_formula_structural       Li6Na10S16Ti4
_chemical_formula_sum              "Li6 Na10 S16 Ti4"
_cell_length_a       9.90749
_cell_length_b       9.90749
_cell_length_c       11.9268
_cell_angle_alpha    53.0382
_cell_angle_beta     126.962
_cell_angle_gamma    122.168

_space_group_name_H-M_alt    "P 1"
_space_group_IT_number       1

loop_
  _space_group_symop_operation_xyz
  'x, y, z'

loop_
  _atom_site_type_symbol
  _atom_site_label
  _atom_site_symmetry_multiplicity
  _atom_site_fract_x
  _atom_site_fract_y
  _atom_site_fract_z
  _atom_site_occupancy
  Li  Li1       1.0  0.19200  0.80600  0.62400  1.0000
  Li  Li2       1.0  0.80600  0.19200  0.87600  1.0000
  Li  Li3       1.0  0.80800  0.19400  0.37600  1.0000
  Li  Li4       1.0  0.19400  0.80800  0.12400  1.0000
  Li  Li5       1.0  0.50000  0.00000  0.50000  1.0000
  Li  Li6       1.0  0.00000  0.50000  0.00000  1.0000
  Na  Na1       1.0  0.41300  0.60900  0.53500  1.0000
  Na  Na2       1.0  0.60900  0.41300  0.96500  1.0000
  Na  Na3       1.0  0.58700  0.39100  0.46500  1.0000
  Na  Na4       1.0  0.39100  0.58700  0.03520  1.0000
  Na  Na5       1.0  0.00154  0.00154  0.25000  1.0000
  Na  Na6       1.0  0.99800  0.99800  0.75000  1.0000
  Na  Na7       1.0  0.60300  0.90300  0.22300  1.0000
  Na  Na8       1.0  0.90300  0.60300  0.27700  1.0000
  Na  Na9       1.0  0.39700  0.09720  0.77700  1.0000
  Na  Na10      1.0  0.09720  0.39700  0.72300  1.0000
  S   S1        1.0  0.23800  0.87800  0.30800  1.0000
  S   S2        1.0  0.87800  0.23800  0.19200  1.0000
  S   S3        1.0  0.76200  0.12200  0.69200  1.0000
  S   S4        1.0  0.12200  0.76200  0.80800  1.0000
  S   S5        1.0  0.57500  0.31900  0.25200  1.0000
  S   S6        1.0  0.31900  0.57500  0.24800  1.0000
  S   S7        1.0  0.42500  0.68100  0.74800  1.0000
  S   S8        1.0  0.68100  0.42500  0.75200  1.0000
  S   S9        1.0  0.29300  0.11400  0.49300  1.0000
  S   S10       1.0  0.11400  0.29300  0.00729  1.0000
  S   S11       1.0  0.70700  0.88600  0.50700  1.0000
  S   S12       1.0  0.88600  0.70700  0.99300  1.0000
  S   S13       1.0  0.66700  0.89200  0.02270  1.0000
  S   S14       1.0  0.89200  0.66700  0.47700  1.0000
  S   S15       1.0  0.33300  0.10800  0.97700  1.0000
  S   S16       1.0  0.10800  0.33300  0.52300  1.0000
  Ti  Ti1       1.0  0.31600  0.15100  0.13600  1.0000
  Ti  Ti2       1.0  0.15100  0.31600  0.36400  1.0000
  Ti  Ti3       1.0  0.68400  0.84900  0.86400  1.0000
  Ti  Ti4       1.0  0.84900  0.68400  0.63600  1.0000
