data_image0
_chemical_formula_structural       Bi8Li2Nb6O28
_chemical_formula_sum              "Bi8 Li2 Nb6 O28"
_cell_length_a       7.55591
_cell_length_b       7.55591
_cell_length_c       11.9757
_cell_angle_alpha    79.8997
_cell_angle_beta     100.1
_cell_angle_gamma    119.733

_space_group_name_H-M_alt    "P 1"
_space_group_IT_number       1

loop_
  _space_group_symop_operation_xyz
  'x, y, z'

loop_
  _atom_site_type_symbol
  _atom_site_label
  _atom_site_symmetry_multiplicity
  _atom_site_fract_x
  _atom_site_fract_y
  _atom_site_fract_z
  _atom_site_occupancy
  Bi  Bi1       1.0  0.73200  0.49600  0.00645  1.0000
  Bi  Bi2       1.0  0.49600  0.73200  0.49400  1.0000
  Bi  Bi3       1.0  0.26800  0.50400  0.99400  1.0000
  Bi  Bi4       1.0  0.50400  0.26800  0.50600  1.0000
  Bi  Bi5       1.0  0.25900  0.02750  0.96900  1.0000
  Bi  Bi6       1.0  0.02750  0.25900  0.53100  1.0000
  Bi  Bi7       1.0  0.74100  0.97200  0.03130  1.0000
  Bi  Bi8       1.0  0.97200  0.74100  0.46900  1.0000
  Li  Li1       1.0  0.53900  0.53900  0.25000  1.0000
  Li  Li2       1.0  0.46100  0.46100  0.75000  1.0000
  Nb  Nb1       1.0  0.85800  0.85800  0.75000  1.0000
  Nb  Nb2       1.0  0.14200  0.14200  0.25000  1.0000
  Nb  Nb3       1.0  0.13600  0.63500  0.23900  1.0000
  Nb  Nb4       1.0  0.63500  0.13600  0.26100  1.0000
  Nb  Nb5       1.0  0.86400  0.36500  0.76100  1.0000
  Nb  Nb6       1.0  0.36500  0.86400  0.73900  1.0000
  O   O1        1.0  0.14900  0.93000  0.76600  1.0000
  O   O2        1.0  0.93000  0.14900  0.73400  1.0000
  O   O3        1.0  0.85100  0.06960  0.23400  1.0000
  O   O4        1.0  0.06960  0.85100  0.26600  1.0000
  O   O5        1.0  0.57900  0.61600  0.09140  1.0000
  O   O6        1.0  0.61600  0.57900  0.40900  1.0000
  O   O7        1.0  0.42100  0.38400  0.90900  1.0000
  O   O8        1.0  0.38400  0.42100  0.59100  1.0000
  O   O9        1.0  0.14000  0.72200  0.07770  1.0000
  O   O10       1.0  0.72200  0.14000  0.42200  1.0000
  O   O11       1.0  0.86000  0.27800  0.92200  1.0000
  O   O12       1.0  0.27800  0.86000  0.57800  1.0000
  O   O13       1.0  0.86100  0.85200  0.91800  1.0000
  O   O14       1.0  0.85200  0.86100  0.58200  1.0000
  O   O15       1.0  0.13900  0.14800  0.08170  1.0000
  O   O16       1.0  0.14800  0.13900  0.41800  1.0000
  O   O17       1.0  0.14200  0.55000  0.41200  1.0000
  O   O18       1.0  0.55000  0.14200  0.08750  1.0000
  O   O19       1.0  0.85800  0.45000  0.58800  1.0000
  O   O20       1.0  0.45000  0.85800  0.91200  1.0000
  O   O21       1.0  0.23000  0.44300  0.21400  1.0000
  O   O22       1.0  0.44300  0.23000  0.28600  1.0000
  O   O23       1.0  0.77000  0.55700  0.78600  1.0000
  O   O24       1.0  0.55700  0.77000  0.71400  1.0000
  O   O25       1.0  0.84400  0.43800  0.21800  1.0000
  O   O26       1.0  0.43800  0.84400  0.28200  1.0000
  O   O27       1.0  0.15600  0.56200  0.78200  1.0000
  O   O28       1.0  0.56200  0.15600  0.71800  1.0000
