data_image0
_chemical_formula_structural       Ge4Mn8Se16
_chemical_formula_sum              "Ge4 Mn8 Se16"
_cell_length_a       12.9175
_cell_length_b       7.50334
_cell_length_c       6.5149
_cell_angle_alpha    90
_cell_angle_beta     90
_cell_angle_gamma    90

_space_group_name_H-M_alt    "P 1"
_space_group_IT_number       1

loop_
  _space_group_symop_operation_xyz
  'x, y, z'

loop_
  _atom_site_type_symbol
  _atom_site_label
  _atom_site_symmetry_multiplicity
  _atom_site_fract_x
  _atom_site_fract_y
  _atom_site_fract_z
  _atom_site_occupancy
  Ge  Ge1       1.0  0.09050  0.25000  0.41400  1.0000
  Ge  Ge2       1.0  0.40900  0.75000  0.91400  1.0000
  Ge  Ge3       1.0  0.59100  0.25000  0.08560  1.0000
  Ge  Ge4       1.0  0.90900  0.75000  0.58600  1.0000
  Mn  Mn1       1.0  0.26300  0.25000  0.00329  1.0000
  Mn  Mn2       1.0  0.23700  0.75000  0.50300  1.0000
  Mn  Mn3       1.0  0.76300  0.25000  0.49700  1.0000
  Mn  Mn4       1.0  0.73700  0.75000  0.99700  1.0000
  Mn  Mn5       1.0  0.00000  0.00000  0.00000  1.0000
  Mn  Mn6       1.0  0.50000  0.00000  0.50000  1.0000
  Mn  Mn7       1.0  0.50000  0.50000  0.50000  1.0000
  Mn  Mn8       1.0  0.00000  0.50000  0.00000  1.0000
  Se  Se1       1.0  0.17000  0.99400  0.22800  1.0000
  Se  Se2       1.0  0.33000  0.00586  0.72800  1.0000
  Se  Se3       1.0  0.67000  0.50600  0.27200  1.0000
  Se  Se4       1.0  0.83000  0.49400  0.77200  1.0000
  Se  Se5       1.0  0.83000  0.00586  0.77200  1.0000
  Se  Se6       1.0  0.67000  0.99400  0.27200  1.0000
  Se  Se7       1.0  0.33000  0.49400  0.72800  1.0000
  Se  Se8       1.0  0.17000  0.50600  0.22800  1.0000
  Se  Se9       1.0  0.91900  0.25000  0.23900  1.0000
  Se  Se10      1.0  0.58100  0.75000  0.73900  1.0000
  Se  Se11      1.0  0.41900  0.25000  0.26100  1.0000
  Se  Se12      1.0  0.08110  0.75000  0.76100  1.0000
  Se  Se13      1.0  0.08790  0.25000  0.81100  1.0000
  Se  Se14      1.0  0.41200  0.75000  0.31100  1.0000
  Se  Se15      1.0  0.58800  0.25000  0.68900  1.0000
  Se  Se16      1.0  0.91200  0.75000  0.18900  1.0000
