data_image0
_chemical_formula_structural       O4Sr2U
_chemical_formula_sum              "O4 Sr2 U1"
_cell_length_a       4.43031
_cell_length_b       4.43032
_cell_length_c       7.16387
_cell_angle_alpha    108.012
_cell_angle_beta     108.011
_cell_angle_gamma    90

_space_group_name_H-M_alt    "P 1"
_space_group_IT_number       1

loop_
  _space_group_symop_operation_xyz
  'x, y, z'

loop_
  _atom_site_type_symbol
  _atom_site_label
  _atom_site_symmetry_multiplicity
  _atom_site_fract_x
  _atom_site_fract_y
  _atom_site_fract_z
  _atom_site_occupancy
  O   O1        1.0  0.50000  0.00000  0.00000  1.0000
  O   O2        1.0  0.00000  0.50000  0.00000  1.0000
  O   O3        1.0  0.17500  0.17500  0.34900  1.0000
  O   O4        1.0  0.82500  0.82500  0.65100  1.0000
  Sr  Sr1       1.0  0.64700  0.64700  0.29400  1.0000
  Sr  Sr2       1.0  0.35300  0.35300  0.70600  1.0000
  U   U1        1.0  0.00000  0.00000  0.00000  1.0000
