data_image0
_chemical_formula_structural       O6Ti2U
_chemical_formula_sum              "O6 Ti2 U1"
_cell_length_a       3.80693
_cell_length_b       5.28841
_cell_length_c       6.52999
_cell_angle_alpha    96.7157
_cell_angle_beta     106.948
_cell_angle_gamma    111.096

_space_group_name_H-M_alt    "P 1"
_space_group_IT_number       1

loop_
  _space_group_symop_operation_xyz
  'x, y, z'

loop_
  _atom_site_type_symbol
  _atom_site_label
  _atom_site_symmetry_multiplicity
  _atom_site_fract_x
  _atom_site_fract_y
  _atom_site_fract_z
  _atom_site_occupancy
  O   O1        1.0  0.44500  0.79100  0.09950  1.0000
  O   O2        1.0  0.33100  0.35300  0.30800  1.0000
  O   O3        1.0  0.12500  0.84700  0.40300  1.0000
  O   O4        1.0  0.87500  0.15300  0.59700  1.0000
  O   O5        1.0  0.66900  0.64700  0.69200  1.0000
  O   O6        1.0  0.55500  0.20900  0.90000  1.0000
  Ti  Ti1       1.0  0.56900  0.74700  0.39000  1.0000
  Ti  Ti2       1.0  0.43100  0.25300  0.61000  1.0000
  U   U1        1.0  0.00000  0.00000  0.00000  1.0000
