data_image0
_chemical_formula_structural       Cl12Eu12Li4O16Si4
_chemical_formula_sum              "Cl12 Eu12 Li4 O16 Si4"
_cell_length_a       9.06037
_cell_length_b       6.80557
_cell_length_c       13.1562
_cell_angle_alpha    90
_cell_angle_beta     90
_cell_angle_gamma    90

_space_group_name_H-M_alt    "P 1"
_space_group_IT_number       1

loop_
  _space_group_symop_operation_xyz
  'x, y, z'

loop_
  _atom_site_type_symbol
  _atom_site_label
  _atom_site_symmetry_multiplicity
  _atom_site_fract_x
  _atom_site_fract_y
  _atom_site_fract_z
  _atom_site_occupancy
  Cl  Cl1       1.0  0.18500  0.33700  0.37600  1.0000
  Cl  Cl2       1.0  0.31500  0.66300  0.87600  1.0000
  Cl  Cl3       1.0  0.18500  0.66300  0.62400  1.0000
  Cl  Cl4       1.0  0.31500  0.33700  0.12400  1.0000
  Cl  Cl5       1.0  0.81500  0.66300  0.62400  1.0000
  Cl  Cl6       1.0  0.68500  0.33700  0.12400  1.0000
  Cl  Cl7       1.0  0.81500  0.33700  0.37600  1.0000
  Cl  Cl8       1.0  0.68500  0.66300  0.87600  1.0000
  Cl  Cl9       1.0  0.00000  0.19400  0.60900  1.0000
  Cl  Cl10      1.0  0.50000  0.80600  0.10900  1.0000
  Cl  Cl11      1.0  0.00000  0.80600  0.39100  1.0000
  Cl  Cl12      1.0  0.50000  0.19400  0.89100  1.0000
  Eu  Eu1       1.0  0.00000  0.22100  0.19300  1.0000
  Eu  Eu2       1.0  0.50000  0.77900  0.69300  1.0000
  Eu  Eu3       1.0  0.00000  0.77900  0.80700  1.0000
  Eu  Eu4       1.0  0.50000  0.22100  0.30700  1.0000
  Eu  Eu5       1.0  0.25000  0.66800  0.25000  1.0000
  Eu  Eu6       1.0  0.25000  0.33200  0.75000  1.0000
  Eu  Eu7       1.0  0.75000  0.33200  0.75000  1.0000
  Eu  Eu8       1.0  0.75000  0.66800  0.25000  1.0000
  Eu  Eu9       1.0  0.24400  0.00000  0.50000  1.0000
  Eu  Eu10      1.0  0.25600  0.00000  0.00000  1.0000
  Eu  Eu11      1.0  0.75600  0.00000  0.50000  1.0000
  Eu  Eu12      1.0  0.74400  0.00000  0.00000  1.0000
  Li  Li1       1.0  0.00000  0.50000  0.00000  1.0000
  Li  Li2       1.0  0.50000  0.50000  0.50000  1.0000
  Li  Li3       1.0  0.00000  0.50000  0.50000  1.0000
  Li  Li4       1.0  0.50000  0.50000  0.00000  1.0000
  O   O1        1.0  0.00000  0.21600  0.01060  1.0000
  O   O2        1.0  0.50000  0.78400  0.51100  1.0000
  O   O3        1.0  0.00000  0.78400  0.98900  1.0000
  O   O4        1.0  0.50000  0.21600  0.48900  1.0000
  O   O5        1.0  0.00000  0.57500  0.16200  1.0000
  O   O6        1.0  0.50000  0.42500  0.66200  1.0000
  O   O7        1.0  0.00000  0.42500  0.83800  1.0000
  O   O8        1.0  0.50000  0.57500  0.33800  1.0000
  O   O9        1.0  0.64500  0.08000  0.65300  1.0000
  O   O10       1.0  0.85500  0.92000  0.15300  1.0000
  O   O11       1.0  0.64500  0.92000  0.34700  1.0000
  O   O12       1.0  0.85500  0.08000  0.84700  1.0000
  O   O13       1.0  0.35500  0.92000  0.34700  1.0000
  O   O14       1.0  0.14500  0.08000  0.84700  1.0000
  O   O15       1.0  0.35500  0.08000  0.65300  1.0000
  O   O16       1.0  0.14500  0.92000  0.15300  1.0000
  Si  Si1       1.0  0.00000  0.79800  0.11400  1.0000
  Si  Si2       1.0  0.50000  0.20200  0.61400  1.0000
  Si  Si3       1.0  0.00000  0.20200  0.88600  1.0000
  Si  Si4       1.0  0.50000  0.79800  0.38600  1.0000
