data_image0
_chemical_formula_structural       B12H24N12
_chemical_formula_sum              "B12 H24 N12"
_cell_length_a       5.00971
_cell_length_b       5.00971
_cell_length_c       15.1515
_cell_angle_alpha    90
_cell_angle_beta     90
_cell_angle_gamma    90

_space_group_name_H-M_alt    "P 1"
_space_group_IT_number       1

loop_
  _space_group_symop_operation_xyz
  'x, y, z'

loop_
  _atom_site_type_symbol
  _atom_site_label
  _atom_site_symmetry_multiplicity
  _atom_site_fract_x
  _atom_site_fract_y
  _atom_site_fract_z
  _atom_site_occupancy
  B   B1        1.0  0.33700  0.57400  0.06130  1.0000
  B   B2        1.0  0.66300  0.42600  0.56100  1.0000
  B   B3        1.0  0.83700  0.92600  0.18900  1.0000
  B   B4        1.0  0.16300  0.07400  0.68900  1.0000
  B   B5        1.0  0.42600  0.66300  0.43900  1.0000
  B   B6        1.0  0.57400  0.33700  0.93900  1.0000
  B   B7        1.0  0.07400  0.16300  0.31100  1.0000
  B   B8        1.0  0.92600  0.83700  0.81100  1.0000
  B   B9        1.0  0.14900  0.14900  0.00000  1.0000
  B   B10       1.0  0.85100  0.85100  0.50000  1.0000
  B   B11       1.0  0.64900  0.35100  0.25000  1.0000
  B   B12       1.0  0.35100  0.64900  0.75000  1.0000
  H   H1        1.0  0.32100  0.75800  0.11100  1.0000
  H   H2        1.0  0.67900  0.24200  0.61100  1.0000
  H   H3        1.0  0.82100  0.74200  0.13900  1.0000
  H   H4        1.0  0.17900  0.25800  0.63900  1.0000
  H   H5        1.0  0.24200  0.67900  0.38900  1.0000
  H   H6        1.0  0.75800  0.32100  0.88900  1.0000
  H   H7        1.0  0.25800  0.17900  0.36100  1.0000
  H   H8        1.0  0.74200  0.82100  0.86100  1.0000
  H   H9        1.0  0.98600  0.37500  0.10400  1.0000
  H   H10       1.0  0.01380  0.62500  0.60400  1.0000
  H   H11       1.0  0.48600  0.12500  0.14600  1.0000
  H   H12       1.0  0.51400  0.87500  0.64600  1.0000
  H   H13       1.0  0.62500  0.01380  0.39600  1.0000
  H   H14       1.0  0.37500  0.98600  0.89600  1.0000
  H   H15       1.0  0.87500  0.51400  0.35400  1.0000
  H   H16       1.0  0.12500  0.48600  0.85400  1.0000
  H   H17       1.0  0.69600  0.69600  0.00000  1.0000
  H   H18       1.0  0.30400  0.30400  0.50000  1.0000
  H   H19       1.0  0.19600  0.80400  0.25000  1.0000
  H   H20       1.0  0.80400  0.19600  0.75000  1.0000
  H   H21       1.0  0.98000  0.98000  0.00000  1.0000
  H   H22       1.0  0.02030  0.02030  0.50000  1.0000
  H   H23       1.0  0.48000  0.52000  0.25000  1.0000
  H   H24       1.0  0.52000  0.48000  0.75000  1.0000
  N   N1        1.0  0.55200  0.55200  0.00000  1.0000
  N   N2        1.0  0.44800  0.44800  0.50000  1.0000
  N   N3        1.0  0.05180  0.94800  0.25000  1.0000
  N   N4        1.0  0.94800  0.05180  0.75000  1.0000
  N   N5        1.0  0.14300  0.36500  0.06170  1.0000
  N   N6        1.0  0.85700  0.63500  0.56200  1.0000
  N   N7        1.0  0.64300  0.13500  0.18800  1.0000
  N   N8        1.0  0.35700  0.86500  0.68800  1.0000
  N   N9        1.0  0.63500  0.85700  0.43800  1.0000
  N   N10       1.0  0.36500  0.14300  0.93800  1.0000
  N   N11       1.0  0.86500  0.35700  0.31200  1.0000
  N   N12       1.0  0.13500  0.64300  0.81200  1.0000
