data_image0
_chemical_formula_structural       C4Cl18Pr10
_chemical_formula_sum              "C4 Cl18 Pr10"
_cell_length_a       8.58816
_cell_length_b       8.67888
_cell_length_c       12.1713
_cell_angle_alpha    84.1064
_cell_angle_beta     85.0049
_cell_angle_gamma    61.3516

_space_group_name_H-M_alt    "P 1"
_space_group_IT_number       1

loop_
  _space_group_symop_operation_xyz
  'x, y, z'

loop_
  _atom_site_type_symbol
  _atom_site_label
  _atom_site_symmetry_multiplicity
  _atom_site_fract_x
  _atom_site_fract_y
  _atom_site_fract_z
  _atom_site_occupancy
  C   C1        1.0  0.14100  0.69900  0.81000  1.0000
  C   C2        1.0  0.85900  0.30100  0.19000  1.0000
  C   C3        1.0  0.16900  0.69100  0.69100  1.0000
  C   C4        1.0  0.83100  0.30900  0.30900  1.0000
  Cl  Cl1       1.0  0.17800  0.05050  0.50700  1.0000
  Cl  Cl2       1.0  0.82200  0.95000  0.49300  1.0000
  Cl  Cl3       1.0  0.78200  0.03930  0.02490  1.0000
  Cl  Cl4       1.0  0.21800  0.96100  0.97500  1.0000
  Cl  Cl5       1.0  0.83900  0.13000  0.74000  1.0000
  Cl  Cl6       1.0  0.16100  0.87000  0.26000  1.0000
  Cl  Cl7       1.0  0.21500  0.33100  0.03240  1.0000
  Cl  Cl8       1.0  0.78500  0.66900  0.96800  1.0000
  Cl  Cl9       1.0  0.07880  0.34300  0.77100  1.0000
  Cl  Cl10      1.0  0.92100  0.65700  0.22900  1.0000
  Cl  Cl11      1.0  0.59800  0.59500  0.72300  1.0000
  Cl  Cl12      1.0  0.40200  0.40500  0.27700  1.0000
  Cl  Cl13      1.0  0.51000  0.01730  0.77000  1.0000
  Cl  Cl14      1.0  0.49000  0.98300  0.23000  1.0000
  Cl  Cl15      1.0  0.50000  0.50000  0.00000  1.0000
  Cl  Cl16      1.0  0.00000  0.50000  0.50000  1.0000
  Cl  Cl17      1.0  0.54300  0.67000  0.44600  1.0000
  Cl  Cl18      1.0  0.45700  0.33000  0.55400  1.0000
  Pr  Pr1       1.0  0.86600  0.73100  0.73300  1.0000
  Pr  Pr2       1.0  0.13400  0.26900  0.26700  1.0000
  Pr  Pr3       1.0  0.39200  0.40400  0.78000  1.0000
  Pr  Pr4       1.0  0.60800  0.59600  0.22000  1.0000
  Pr  Pr5       1.0  0.22600  0.92900  0.74300  1.0000
  Pr  Pr6       1.0  0.77400  0.07150  0.25700  1.0000
  Pr  Pr7       1.0  0.20200  0.68700  0.49800  1.0000
  Pr  Pr8       1.0  0.79800  0.31300  0.50200  1.0000
  Pr  Pr9       1.0  0.10200  0.70300  0.00088  1.0000
  Pr  Pr10      1.0  0.89800  0.29700  0.99900  1.0000
