data_image0
_chemical_formula_structural       C4Ce10Cl18
_chemical_formula_sum              "C4 Ce10 Cl18"
_cell_length_a       8.68264
_cell_length_b       8.74884
_cell_length_c       12.2513
_cell_angle_alpha    95.1716
_cell_angle_beta     94.2214
_cell_angle_gamma    61.1697

_space_group_name_H-M_alt    "P 1"
_space_group_IT_number       1

loop_
  _space_group_symop_operation_xyz
  'x, y, z'

loop_
  _atom_site_type_symbol
  _atom_site_label
  _atom_site_symmetry_multiplicity
  _atom_site_fract_x
  _atom_site_fract_y
  _atom_site_fract_z
  _atom_site_occupancy
  C   C1        1.0  0.14200  0.69500  0.19300  1.0000
  C   C2        1.0  0.85800  0.30500  0.80700  1.0000
  C   C3        1.0  0.17000  0.68800  0.31000  1.0000
  C   C4        1.0  0.83000  0.31200  0.69000  1.0000
  Ce  Ce1       1.0  0.13100  0.27500  0.72800  1.0000
  Ce  Ce2       1.0  0.86900  0.72500  0.27200  1.0000
  Ce  Ce3       1.0  0.39600  0.40000  0.22400  1.0000
  Ce  Ce4       1.0  0.60400  0.60000  0.77600  1.0000
  Ce  Ce5       1.0  0.10400  0.70100  0.00045  1.0000
  Ce  Ce6       1.0  0.89600  0.29900  0.00000  1.0000
  Ce  Ce7       1.0  0.20300  0.68700  0.50400  1.0000
  Ce  Ce8       1.0  0.79700  0.31300  0.49600  1.0000
  Ce  Ce9       1.0  0.22500  0.92800  0.25600  1.0000
  Ce  Ce10      1.0  0.77500  0.07240  0.74400  1.0000
  Cl  Cl1       1.0  0.08060  0.33800  0.22800  1.0000
  Cl  Cl2       1.0  0.91900  0.66200  0.77200  1.0000
  Cl  Cl3       1.0  0.40200  0.41100  0.72500  1.0000
  Cl  Cl4       1.0  0.59800  0.58900  0.27500  1.0000
  Cl  Cl5       1.0  0.48900  0.98600  0.76300  1.0000
  Cl  Cl6       1.0  0.51100  0.01430  0.23700  1.0000
  Cl  Cl7       1.0  0.16200  0.87200  0.74000  1.0000
  Cl  Cl8       1.0  0.83800  0.12800  0.26000  1.0000
  Cl  Cl9       1.0  0.21700  0.96000  0.02320  1.0000
  Cl  Cl10      1.0  0.78300  0.04020  0.97700  1.0000
  Cl  Cl11      1.0  0.21300  0.33000  0.96200  1.0000
  Cl  Cl12      1.0  0.78700  0.67000  0.03800  1.0000
  Cl  Cl13      1.0  0.45700  0.32700  0.45100  1.0000
  Cl  Cl14      1.0  0.54300  0.67300  0.54900  1.0000
  Cl  Cl15      1.0  0.50000  0.50000  1.00000  1.0000
  Cl  Cl16      1.0  0.00000  0.50000  0.50000  1.0000
  Cl  Cl17      1.0  0.17500  0.05050  0.49000  1.0000
  Cl  Cl18      1.0  0.82500  0.95000  0.51000  1.0000
