data_image0
_chemical_formula_structural       Cl18Cu2Nb6Rb2
_chemical_formula_sum              "Cl18 Cu2 Nb6 Rb2"
_cell_length_a       9.20305
_cell_length_b       9.22897
_cell_length_c       9.24603
_cell_angle_alpha    119.791
_cell_angle_beta     95.0967
_cell_angle_gamma    106.001

_space_group_name_H-M_alt    "P 1"
_space_group_IT_number       1

loop_
  _space_group_symop_operation_xyz
  'x, y, z'

loop_
  _atom_site_type_symbol
  _atom_site_label
  _atom_site_symmetry_multiplicity
  _atom_site_fract_x
  _atom_site_fract_y
  _atom_site_fract_z
  _atom_site_occupancy
  Cl  Cl1       1.0  0.32400  0.05620  0.96700  1.0000
  Cl  Cl2       1.0  0.67600  0.94400  0.03340  1.0000
  Cl  Cl3       1.0  0.32800  0.58000  0.66900  1.0000
  Cl  Cl4       1.0  0.67200  0.42000  0.33100  1.0000
  Cl  Cl5       1.0  0.99500  0.57400  0.22400  1.0000
  Cl  Cl6       1.0  0.00519  0.42600  0.77600  1.0000
  Cl  Cl7       1.0  0.99900  0.27700  0.35200  1.0000
  Cl  Cl8       1.0  0.00086  0.72300  0.64800  1.0000
  Cl  Cl9       1.0  0.66600  0.67000  0.17000  1.0000
  Cl  Cl10      1.0  0.33400  0.33000  0.83000  1.0000
  Cl  Cl11      1.0  0.31300  0.75800  0.14600  1.0000
  Cl  Cl12      1.0  0.68700  0.24200  0.85400  1.0000
  Cl  Cl13      1.0  0.32800  0.90200  0.55300  1.0000
  Cl  Cl14      1.0  0.67200  0.09770  0.44700  1.0000
  Cl  Cl15      1.0  0.00301  0.14700  0.92500  1.0000
  Cl  Cl16      1.0  0.99700  0.85300  0.07540  1.0000
  Cl  Cl17      1.0  0.33000  0.17900  0.40100  1.0000
  Cl  Cl18      1.0  0.67000  0.82100  0.59900  1.0000
  Cu  Cu1       1.0  0.38800  0.82000  0.94900  1.0000
  Cu  Cu2       1.0  0.61200  0.18000  0.05100  1.0000
  Nb  Nb1       1.0  0.13800  0.89500  0.34200  1.0000
  Nb  Nb2       1.0  0.86200  0.10500  0.65800  1.0000
  Nb  Nb3       1.0  0.14100  0.02160  0.70200  1.0000
  Nb  Nb4       1.0  0.85900  0.97800  0.29800  1.0000
  Nb  Nb5       1.0  0.14100  0.25600  0.57600  1.0000
  Nb  Nb6       1.0  0.85900  0.74400  0.42400  1.0000
  Rb  Rb1       1.0  0.66700  0.52600  0.73800  1.0000
  Rb  Rb2       1.0  0.33300  0.47400  0.26200  1.0000
