data_image0
_chemical_formula_structural       B28C38La30
_chemical_formula_sum              "B28 C38 La30"
_cell_length_a       8.66092
_cell_length_b       8.67249
_cell_length_c       19.5497
_cell_angle_alpha    90
_cell_angle_beta     91.5188
_cell_angle_gamma    90

_space_group_name_H-M_alt    "P 1"
_space_group_IT_number       1

loop_
  _space_group_symop_operation_xyz
  'x, y, z'

loop_
  _atom_site_type_symbol
  _atom_site_label
  _atom_site_symmetry_multiplicity
  _atom_site_fract_x
  _atom_site_fract_y
  _atom_site_fract_z
  _atom_site_occupancy
  B   B1        1.0  0.20200  0.39900  0.53800  1.0000
  B   B2        1.0  0.79800  0.89900  0.96200  1.0000
  B   B3        1.0  0.79800  0.60100  0.46200  1.0000
  B   B4        1.0  0.20200  0.10100  0.03750  1.0000
  B   B5        1.0  0.33100  0.27700  0.66100  1.0000
  B   B6        1.0  0.66900  0.77700  0.83900  1.0000
  B   B7        1.0  0.66900  0.72300  0.33900  1.0000
  B   B8        1.0  0.33100  0.22300  0.16100  1.0000
  B   B9        1.0  0.45800  0.37000  0.79100  1.0000
  B   B10       1.0  0.54200  0.87000  0.70900  1.0000
  B   B11       1.0  0.54200  0.63000  0.20900  1.0000
  B   B12       1.0  0.45800  0.13000  0.29100  1.0000
  B   B13       1.0  0.56300  0.32800  0.93100  1.0000
  B   B14       1.0  0.43700  0.82800  0.56900  1.0000
  B   B15       1.0  0.43700  0.67200  0.06910  1.0000
  B   B16       1.0  0.56300  0.17200  0.43100  1.0000
  B   B17       1.0  0.02880  0.52600  0.92800  1.0000
  B   B18       1.0  0.97100  0.02600  0.57200  1.0000
  B   B19       1.0  0.97100  0.47400  0.07180  1.0000
  B   B20       1.0  0.02880  0.97400  0.42800  1.0000
  B   B21       1.0  0.08340  0.58800  0.78600  1.0000
  B   B22       1.0  0.91700  0.08790  0.71400  1.0000
  B   B23       1.0  0.91700  0.41200  0.21400  1.0000
  B   B24       1.0  0.08340  0.91200  0.28600  1.0000
  B   B25       1.0  0.25000  0.49300  0.39900  1.0000
  B   B26       1.0  0.75000  0.99300  0.10100  1.0000
  B   B27       1.0  0.75000  0.50700  0.60100  1.0000
  B   B28       1.0  0.25000  0.00707  0.89900  1.0000
  C   C1        1.0  0.60300  0.31200  0.00339  1.0000
  C   C2        1.0  0.39700  0.81200  0.49700  1.0000
  C   C3        1.0  0.39700  0.68800  0.99700  1.0000
  C   C4        1.0  0.60300  0.18800  0.50300  1.0000
  C   C5        1.0  0.48600  0.36200  0.86500  1.0000
  C   C6        1.0  0.51400  0.86200  0.63500  1.0000
  C   C7        1.0  0.51400  0.63800  0.13500  1.0000
  C   C8        1.0  0.48600  0.13800  0.36500  1.0000
  C   C9        1.0  0.39700  0.27800  0.73100  1.0000
  C   C10       1.0  0.60300  0.77800  0.76900  1.0000
  C   C11       1.0  0.60300  0.72200  0.26900  1.0000
  C   C12       1.0  0.39700  0.22200  0.23100  1.0000
  C   C13       1.0  0.11300  0.66700  0.72200  1.0000
  C   C14       1.0  0.88700  0.16700  0.77800  1.0000
  C   C15       1.0  0.88700  0.33300  0.27800  1.0000
  C   C16       1.0  0.11300  0.83300  0.22200  1.0000
  C   C17       1.0  0.06350  0.58500  0.86100  1.0000
  C   C18       1.0  0.93700  0.08460  0.63900  1.0000
  C   C19       1.0  0.93700  0.41500  0.13900  1.0000
  C   C20       1.0  0.06350  0.91500  0.36100  1.0000
  C   C21       1.0  0.00000  0.50000  0.00000  1.0000
  C   C22       1.0  0.00000  0.00000  0.50000  1.0000
  C   C23       1.0  0.31000  0.35600  0.59500  1.0000
  C   C24       1.0  0.69000  0.85600  0.90500  1.0000
  C   C25       1.0  0.69000  0.64400  0.40500  1.0000
  C   C26       1.0  0.31000  0.14400  0.09470  1.0000
  C   C27       1.0  0.20500  0.41600  0.46200  1.0000
  C   C28       1.0  0.79500  0.91600  0.03780  1.0000
  C   C29       1.0  0.79500  0.58400  0.53800  1.0000
  C   C30       1.0  0.20500  0.08350  0.96200  1.0000
  C   C31       1.0  0.26400  0.52200  0.32700  1.0000
  C   C32       1.0  0.73600  0.02200  0.17300  1.0000
  C   C33       1.0  0.73600  0.47800  0.67300  1.0000
  C   C34       1.0  0.26400  0.97800  0.82700  1.0000
  C   C35       1.0  0.12300  0.69000  0.65400  1.0000
  C   C36       1.0  0.87700  0.19000  0.84600  1.0000
  C   C37       1.0  0.87700  0.31000  0.34600  1.0000
  C   C38       1.0  0.12300  0.81000  0.15400  1.0000
  La  La1       1.0  0.50000  0.00000  0.00000  1.0000
  La  La2       1.0  0.50000  0.50000  0.50000  1.0000
  La  La3       1.0  0.17400  0.27800  0.83300  1.0000
  La  La4       1.0  0.82600  0.77800  0.66700  1.0000
  La  La5       1.0  0.82600  0.72200  0.16700  1.0000
  La  La6       1.0  0.17400  0.22200  0.33300  1.0000
  La  La7       1.0  0.42900  0.92600  0.18000  1.0000
  La  La8       1.0  0.57100  0.42600  0.32000  1.0000
  La  La9       1.0  0.57100  0.07400  0.82000  1.0000
  La  La10      1.0  0.42900  0.57400  0.68000  1.0000
  La  La11      1.0  0.63300  0.19200  0.63800  1.0000
  La  La12      1.0  0.36700  0.69200  0.86200  1.0000
  La  La13      1.0  0.36700  0.80800  0.36200  1.0000
  La  La14      1.0  0.63300  0.30800  0.13800  1.0000
  La  La15      1.0  0.23500  0.97200  0.69600  1.0000
  La  La16      1.0  0.76500  0.47200  0.80400  1.0000
  La  La17      1.0  0.76500  0.02810  0.30400  1.0000
  La  La18      1.0  0.23500  0.52800  0.19600  1.0000
  La  La19      1.0  0.30500  0.39300  0.01190  1.0000
  La  La20      1.0  0.69500  0.89300  0.48800  1.0000
  La  La21      1.0  0.69500  0.60700  0.98800  1.0000
  La  La22      1.0  0.30500  0.10700  0.51200  1.0000
  La  La23      1.0  0.89100  0.20600  0.97600  1.0000
  La  La24      1.0  0.10900  0.70600  0.52400  1.0000
  La  La25      1.0  0.10900  0.79400  0.02420  1.0000
  La  La26      1.0  0.89100  0.29400  0.47600  1.0000
  La  La27      1.0  0.97100  0.88800  0.84200  1.0000
  La  La28      1.0  0.02880  0.38800  0.65800  1.0000
  La  La29      1.0  0.02880  0.11200  0.15800  1.0000
  La  La30      1.0  0.97100  0.61200  0.34200  1.0000
