data_image0
_chemical_formula_structural       Ni21Zr8
_chemical_formula_sum              "Ni21 Zr8"
_cell_length_a       6.393
_cell_length_b       7.9733
_cell_length_c       8.48668
_cell_angle_alpha    75.2311
_cell_angle_beta     68.0107
_cell_angle_gamma    75.2544

_space_group_name_H-M_alt    "P 1"
_space_group_IT_number       1

loop_
  _space_group_symop_operation_xyz
  'x, y, z'

loop_
  _atom_site_type_symbol
  _atom_site_label
  _atom_site_symmetry_multiplicity
  _atom_site_fract_x
  _atom_site_fract_y
  _atom_site_fract_z
  _atom_site_occupancy
  Ni  Ni1       1.0  0.90100  0.24000  0.15300  1.0000
  Ni  Ni2       1.0  0.09900  0.76000  0.84700  1.0000
  Ni  Ni3       1.0  0.00000  0.00000  0.00000  1.0000
  Ni  Ni4       1.0  0.48300  0.38500  0.24400  1.0000
  Ni  Ni5       1.0  0.51700  0.61500  0.75600  1.0000
  Ni  Ni6       1.0  0.71400  0.11200  0.47100  1.0000
  Ni  Ni7       1.0  0.28600  0.88800  0.52900  1.0000
  Ni  Ni8       1.0  0.11800  0.55500  0.35000  1.0000
  Ni  Ni9       1.0  0.88200  0.44500  0.65000  1.0000
  Ni  Ni10      1.0  0.13600  0.21200  0.34200  1.0000
  Ni  Ni11      1.0  0.86400  0.78800  0.65800  1.0000
  Ni  Ni12      1.0  0.09950  0.28100  0.84500  1.0000
  Ni  Ni13      1.0  0.90100  0.71900  0.15500  1.0000
  Ni  Ni14      1.0  0.31900  0.74200  0.04900  1.0000
  Ni  Ni15      1.0  0.68100  0.25800  0.95100  1.0000
  Ni  Ni16      1.0  0.48400  0.70800  0.27500  1.0000
  Ni  Ni17      1.0  0.51600  0.29200  0.72500  1.0000
  Ni  Ni18      1.0  0.30500  0.24400  0.54000  1.0000
  Ni  Ni19      1.0  0.69500  0.75600  0.46000  1.0000
  Ni  Ni20      1.0  0.31800  0.09950  0.03490  1.0000
  Ni  Ni21      1.0  0.68200  0.90100  0.96500  1.0000
  Zr  Zr1       1.0  0.56700  0.03810  0.24700  1.0000
  Zr  Zr2       1.0  0.43300  0.96200  0.75300  1.0000
  Zr  Zr3       1.0  0.24900  0.56000  0.60700  1.0000
  Zr  Zr4       1.0  0.75100  0.44000  0.39300  1.0000
  Zr  Zr5       1.0  0.24700  0.43700  0.03380  1.0000
  Zr  Zr6       1.0  0.75300  0.56300  0.96600  1.0000
  Zr  Zr7       1.0  0.06990  0.90400  0.31400  1.0000
  Zr  Zr8       1.0  0.93000  0.09590  0.68600  1.0000
