data_image0
_chemical_formula_structural       CoH8O12Re2
_chemical_formula_sum              "Co1 H8 O12 Re2"
_cell_length_a       6.04237
_cell_length_b       5.74155
_cell_length_c       6.53399
_cell_angle_alpha    68.0277
_cell_angle_beta     68.8206
_cell_angle_gamma    74.5201

_space_group_name_H-M_alt    "P 1"
_space_group_IT_number       1

loop_
  _space_group_symop_operation_xyz
  'x, y, z'

loop_
  _atom_site_type_symbol
  _atom_site_label
  _atom_site_symmetry_multiplicity
  _atom_site_fract_x
  _atom_site_fract_y
  _atom_site_fract_z
  _atom_site_occupancy
  Co  Co1       1.0  0.50000  0.00000  0.00000  1.0000
  H   H1        1.0  0.26700  0.82100  0.89500  1.0000
  H   H2        1.0  0.73300  0.17900  0.10500  1.0000
  H   H3        1.0  0.31300  0.07570  0.68200  1.0000
  H   H4        1.0  0.68700  0.92400  0.31800  1.0000
  H   H5        1.0  0.38300  0.47800  0.79300  1.0000
  H   H6        1.0  0.61700  0.52200  0.20700  1.0000
  H   H7        1.0  0.61500  0.34200  0.66000  1.0000
  H   H8        1.0  0.38500  0.65800  0.34000  1.0000
  O   O1        1.0  0.52300  0.34900  0.82100  1.0000
  O   O2        1.0  0.47700  0.65100  0.17900  1.0000
  O   O3        1.0  0.39000  0.93300  0.79100  1.0000
  O   O4        1.0  0.61000  0.06730  0.20900  1.0000
  O   O5        1.0  0.16600  0.07480  0.20300  1.0000
  O   O6        1.0  0.83400  0.92500  0.79700  1.0000
  O   O7        1.0  0.09930  0.61600  0.07410  1.0000
  O   O8        1.0  0.90100  0.38400  0.92600  1.0000
  O   O9        1.0  0.17000  0.29500  0.52100  1.0000
  O   O10       1.0  0.83000  0.70500  0.47900  1.0000
  O   O11       1.0  0.73500  0.30900  0.41900  1.0000
  O   O12       1.0  0.26500  0.69100  0.58100  1.0000
  Re  Re1       1.0  0.04290  0.33600  0.30400  1.0000
  Re  Re2       1.0  0.95700  0.66400  0.69600  1.0000
