data_image0
_chemical_formula_structural       Cl24Se4Zr2
_chemical_formula_sum              "Cl24 Se4 Zr2"
_cell_length_a       12.2538
_cell_length_b       11.9952
_cell_length_c       8.38616
_cell_angle_alpha    71.4343
_cell_angle_beta     68.1179
_cell_angle_gamma    40.4478

_space_group_name_H-M_alt    "P 1"
_space_group_IT_number       1

loop_
  _space_group_symop_operation_xyz
  'x, y, z'

loop_
  _atom_site_type_symbol
  _atom_site_label
  _atom_site_symmetry_multiplicity
  _atom_site_fract_x
  _atom_site_fract_y
  _atom_site_fract_z
  _atom_site_occupancy
  Cl  Cl1       1.0  0.83300  0.91500  0.35000  1.0000
  Cl  Cl2       1.0  0.91500  0.83300  0.90200  1.0000
  Cl  Cl3       1.0  0.34800  0.90000  0.33500  1.0000
  Cl  Cl4       1.0  0.90000  0.34800  0.41700  1.0000
  Cl  Cl5       1.0  0.58500  0.00469  0.73800  1.0000
  Cl  Cl6       1.0  0.00469  0.58500  0.67300  1.0000
  Cl  Cl7       1.0  0.57700  0.51200  0.24500  1.0000
  Cl  Cl8       1.0  0.51200  0.57700  0.66500  1.0000
  Cl  Cl9       1.0  0.67700  0.75300  0.50300  1.0000
  Cl  Cl10      1.0  0.75300  0.67700  0.06680  1.0000
  Cl  Cl11      1.0  0.18300  0.74700  0.49700  1.0000
  Cl  Cl12      1.0  0.74700  0.18300  0.57300  1.0000
  Cl  Cl13      1.0  0.00184  0.08430  0.16400  1.0000
  Cl  Cl14      1.0  0.08430  0.00184  0.75000  1.0000
  Cl  Cl15      1.0  0.50000  0.08630  0.16600  1.0000
  Cl  Cl16      1.0  0.08630  0.50000  0.24800  1.0000
  Cl  Cl17      1.0  0.41700  0.83800  0.91300  1.0000
  Cl  Cl18      1.0  0.83800  0.41700  0.83200  1.0000
  Cl  Cl19      1.0  0.41800  0.33700  0.41200  1.0000
  Cl  Cl20      1.0  0.33700  0.41800  0.83300  1.0000
  Cl  Cl21      1.0  0.24800  0.16500  0.57700  1.0000
  Cl  Cl22      1.0  0.16500  0.24800  0.00915  1.0000
  Cl  Cl23      1.0  0.24100  0.67300  0.08470  1.0000
  Cl  Cl24      1.0  0.67300  0.24100  0.00150  1.0000
  Se  Se1       1.0  0.58600  0.00183  0.47600  1.0000
  Se  Se2       1.0  0.00183  0.58600  0.93600  1.0000
  Se  Se3       1.0  0.31400  0.77400  0.24800  1.0000
  Se  Se4       1.0  0.77400  0.31400  0.66400  1.0000
  Zr  Zr1       1.0  0.12800  0.12800  0.87200  1.0000
  Zr  Zr2       1.0  0.37800  0.37800  0.12200  1.0000
