data_image0
_chemical_formula_structural       B8Br10La8
_chemical_formula_sum              "B8 Br10 La8"
_cell_length_a       9.45819
_cell_length_b       9.45819
_cell_length_c       19.7177
_cell_angle_alpha    62.4035
_cell_angle_beta     117.596
_cell_angle_gamma    153.618

_space_group_name_H-M_alt    "P 1"
_space_group_IT_number       1

loop_
  _space_group_symop_operation_xyz
  'x, y, z'

loop_
  _atom_site_type_symbol
  _atom_site_label
  _atom_site_symmetry_multiplicity
  _atom_site_fract_x
  _atom_site_fract_y
  _atom_site_fract_z
  _atom_site_occupancy
  B   B1        1.0  0.45500  0.91600  0.22900  1.0000
  B   B2        1.0  0.91600  0.45500  0.77100  1.0000
  B   B3        1.0  0.54500  0.08410  0.77100  1.0000
  B   B4        1.0  0.08410  0.54500  0.22900  1.0000
  B   B5        1.0  0.72800  0.27200  0.17500  1.0000
  B   B6        1.0  0.27200  0.72800  0.82500  1.0000
  B   B7        1.0  0.81100  0.18900  0.28500  1.0000
  B   B8        1.0  0.18900  0.81100  0.71500  1.0000
  Br  Br1       1.0  0.50000  0.50000  0.00000  1.0000
  Br  Br2       1.0  0.00000  0.00000  0.50000  1.0000
  Br  Br3       1.0  0.50500  0.49500  0.31200  1.0000
  Br  Br4       1.0  0.49500  0.50500  0.68800  1.0000
  Br  Br5       1.0  0.33200  0.66800  0.06990  1.0000
  Br  Br6       1.0  0.66800  0.33200  0.93000  1.0000
  Br  Br7       1.0  0.04360  0.95600  0.16800  1.0000
  Br  Br8       1.0  0.95600  0.04360  0.83200  1.0000
  Br  Br9       1.0  0.22600  0.77400  0.40200  1.0000
  Br  Br10      1.0  0.77400  0.22600  0.59800  1.0000
  La  La1       1.0  0.16000  0.84000  0.08710  1.0000
  La  La2       1.0  0.84000  0.16000  0.91300  1.0000
  La  La3       1.0  0.66300  0.33700  0.27400  1.0000
  La  La4       1.0  0.33700  0.66300  0.72600  1.0000
  La  La5       1.0  0.37600  0.62400  0.37200  1.0000
  La  La6       1.0  0.62400  0.37600  0.62800  1.0000
  La  La7       1.0  0.88400  0.11600  0.19800  1.0000
  La  La8       1.0  0.11600  0.88400  0.80200  1.0000
