data_image0
_chemical_formula_structural       F16H4P4
_chemical_formula_sum              "F16 H4 P4"
_cell_length_a       4.06874
_cell_length_b       7.16652
_cell_length_c       7.52925
_cell_angle_alpha    90
_cell_angle_beta     90.5392
_cell_angle_gamma    90

_space_group_name_H-M_alt    "P 1"
_space_group_IT_number       1

loop_
  _space_group_symop_operation_xyz
  'x, y, z'

loop_
  _atom_site_type_symbol
  _atom_site_label
  _atom_site_symmetry_multiplicity
  _atom_site_fract_x
  _atom_site_fract_y
  _atom_site_fract_z
  _atom_site_occupancy
  F   F1        1.0  0.21300  0.36100  0.24100  1.0000
  F   F2        1.0  0.28700  0.86100  0.25900  1.0000
  F   F3        1.0  0.78700  0.63900  0.75900  1.0000
  F   F4        1.0  0.71300  0.13900  0.74100  1.0000
  F   F5        1.0  0.77500  0.06800  0.11000  1.0000
  F   F6        1.0  0.72500  0.56800  0.39000  1.0000
  F   F7        1.0  0.22500  0.93200  0.89000  1.0000
  F   F8        1.0  0.27500  0.43200  0.61000  1.0000
  F   F9        1.0  0.66000  0.37200  0.06370  1.0000
  F   F10       1.0  0.84000  0.87200  0.43600  1.0000
  F   F11       1.0  0.34000  0.62800  0.93600  1.0000
  F   F12       1.0  0.16000  0.12800  0.56400  1.0000
  F   F13       1.0  0.63000  0.20000  0.36500  1.0000
  F   F14       1.0  0.87000  0.70000  0.13500  1.0000
  F   F15       1.0  0.37000  0.80000  0.63500  1.0000
  F   F16       1.0  0.13000  0.30000  0.86500  1.0000
  H   H1        1.0  0.25400  0.10600  0.09980  1.0000
  H   H2        1.0  0.24600  0.60600  0.40000  1.0000
  H   H3        1.0  0.74600  0.89400  0.90000  1.0000
  H   H4        1.0  0.75400  0.39400  0.60000  1.0000
  P   P1        1.0  0.49500  0.21700  0.17300  1.0000
  P   P2        1.0  0.00506  0.71700  0.32700  1.0000
  P   P3        1.0  0.50500  0.78300  0.82700  1.0000
  P   P4        1.0  0.99500  0.28300  0.67300  1.0000
