data_image0
_chemical_formula_structural       Au10Eu10Sn10
_chemical_formula_sum              "Au10 Eu10 Sn10"
_cell_length_a       19.136
_cell_length_b       19.136
_cell_length_c       19.136
_cell_angle_alpha    165.663
_cell_angle_beta     28.6673
_cell_angle_gamma    155.308

_space_group_name_H-M_alt    "P 1"
_space_group_IT_number       1

loop_
  _space_group_symop_operation_xyz
  'x, y, z'

loop_
  _atom_site_type_symbol
  _atom_site_label
  _atom_site_symmetry_multiplicity
  _atom_site_fract_x
  _atom_site_fract_y
  _atom_site_fract_z
  _atom_site_occupancy
  Au  Au1       1.0  0.55400  0.91300  0.64200  1.0000
  Au  Au2       1.0  0.27100  0.91300  0.35800  1.0000
  Au  Au3       1.0  0.06790  0.91200  0.15600  1.0000
  Au  Au4       1.0  0.75600  0.91200  0.84400  1.0000
  Au  Au5       1.0  0.15600  0.91200  0.24300  1.0000
  Au  Au6       1.0  0.66900  0.91200  0.75700  1.0000
  Au  Au7       1.0  0.12700  0.58300  0.54400  1.0000
  Au  Au8       1.0  0.03900  0.58300  0.45600  1.0000
  Au  Au9       1.0  0.52400  0.58300  0.94100  1.0000
  Au  Au10      1.0  0.64200  0.58300  0.05920  1.0000
  Eu  Eu1       1.0  0.08190  0.28200  0.80000  1.0000
  Eu  Eu2       1.0  0.48100  0.28200  0.20000  1.0000
  Eu  Eu3       1.0  0.28600  0.28600  0.00000  1.0000
  Eu  Eu4       1.0  0.88000  0.28100  0.59900  1.0000
  Eu  Eu5       1.0  0.68300  0.28100  0.40100  1.0000
  Eu  Eu6       1.0  0.71200  0.21200  0.50000  1.0000
  Eu  Eu7       1.0  0.31500  0.21400  0.10100  1.0000
  Eu  Eu8       1.0  0.11300  0.21400  0.89900  1.0000
  Eu  Eu9       1.0  0.51000  0.21000  0.30000  1.0000
  Eu  Eu10      1.0  0.91000  0.21000  0.70000  1.0000
  Sn  Sn1       1.0  0.44200  0.58300  0.85900  1.0000
  Sn  Sn2       1.0  0.72400  0.58300  0.14100  1.0000
  Sn  Sn3       1.0  0.24200  0.58200  0.66000  1.0000
  Sn  Sn4       1.0  0.92200  0.58200  0.34000  1.0000
  Sn  Sn5       1.0  0.95300  0.91300  0.04020  1.0000
  Sn  Sn6       1.0  0.87300  0.91300  0.96000  1.0000
  Sn  Sn7       1.0  0.32200  0.58100  0.74100  1.0000
  Sn  Sn8       1.0  0.84000  0.58100  0.25900  1.0000
  Sn  Sn9       1.0  0.35400  0.91300  0.44100  1.0000
  Sn  Sn10      1.0  0.47200  0.91300  0.55900  1.0000
