data_image0
_chemical_formula_structural       I6La10Si10
_chemical_formula_sum              "I6 La10 Si10"
_cell_length_a       12.2768
_cell_length_b       12.2768
_cell_length_c       15.801
_cell_angle_alpha    69.9998
_cell_angle_beta     110
_cell_angle_gamma    159.947

_space_group_name_H-M_alt    "P 1"
_space_group_IT_number       1

loop_
  _space_group_symop_operation_xyz
  'x, y, z'

loop_
  _atom_site_type_symbol
  _atom_site_label
  _atom_site_symmetry_multiplicity
  _atom_site_fract_x
  _atom_site_fract_y
  _atom_site_fract_z
  _atom_site_occupancy
  I   I1        1.0  0.82700  0.17300  0.56300  1.0000
  I   I2        1.0  0.17300  0.82700  0.43700  1.0000
  I   I3        1.0  0.06070  0.93900  0.93400  1.0000
  I   I4        1.0  0.93900  0.06070  0.06610  1.0000
  I   I5        1.0  0.40900  0.59100  0.79300  1.0000
  I   I6        1.0  0.59100  0.40900  0.20700  1.0000
  La  La1       1.0  0.16400  0.83600  0.83300  1.0000
  La  La2       1.0  0.83600  0.16400  0.16700  1.0000
  La  La3       1.0  0.98400  0.01630  0.70900  1.0000
  La  La4       1.0  0.01630  0.98400  0.29100  1.0000
  La  La5       1.0  0.08560  0.91400  0.56300  1.0000
  La  La6       1.0  0.91400  0.08560  0.43700  1.0000
  La  La7       1.0  0.33800  0.66200  0.94100  1.0000
  La  La8       1.0  0.66200  0.33800  0.05880  1.0000
  La  La9       1.0  0.26100  0.73900  0.67000  1.0000
  La  La10      1.0  0.73900  0.26100  0.33000  1.0000
  Si  Si1       1.0  0.49100  0.50900  0.57300  1.0000
  Si  Si2       1.0  0.50900  0.49100  0.42700  1.0000
  Si  Si3       1.0  0.74900  0.25100  0.96000  1.0000
  Si  Si4       1.0  0.25100  0.74900  0.04010  1.0000
  Si  Si5       1.0  0.57600  0.42400  0.70700  1.0000
  Si  Si6       1.0  0.42400  0.57600  0.29300  1.0000
  Si  Si7       1.0  0.67200  0.32800  0.68100  1.0000
  Si  Si8       1.0  0.32800  0.67200  0.31900  1.0000
  Si  Si9       1.0  0.76000  0.24000  0.81000  1.0000
  Si  Si10      1.0  0.24000  0.76000  0.19000  1.0000
