data_image0
_chemical_formula_structural       Fe4O16Si2Sn7
_chemical_formula_sum              "Fe4 O16 Si2 Sn7"
_cell_length_a       6.81197
_cell_length_b       6.81146
_cell_length_c       9.04134
_cell_angle_alpha    90.0084
_cell_angle_beta     90
_cell_angle_gamma    120.003

_space_group_name_H-M_alt    "P 1"
_space_group_IT_number       1

loop_
  _space_group_symop_operation_xyz
  'x, y, z'

loop_
  _atom_site_type_symbol
  _atom_site_label
  _atom_site_symmetry_multiplicity
  _atom_site_fract_x
  _atom_site_fract_y
  _atom_site_fract_z
  _atom_site_occupancy
  Fe  Fe1       1.0  0.00000  0.00000  0.00000  1.0000
  Fe  Fe2       1.0  0.50000  0.00000  0.50000  1.0000
  Fe  Fe3       1.0  0.00000  0.50000  0.50000  1.0000
  Fe  Fe4       1.0  0.50000  0.50000  0.50000  1.0000
  O   O1        1.0  0.46400  0.53600  0.17800  1.0000
  O   O2        1.0  0.46400  0.92900  0.17800  1.0000
  O   O3        1.0  0.07140  0.53600  0.17800  1.0000
  O   O4        1.0  0.92900  0.46400  0.82200  1.0000
  O   O5        1.0  0.53600  0.07150  0.82200  1.0000
  O   O6        1.0  0.53600  0.46400  0.82200  1.0000
  O   O7        1.0  0.15700  0.84300  0.61400  1.0000
  O   O8        1.0  0.15700  0.31300  0.61400  1.0000
  O   O9        1.0  0.68600  0.84300  0.61400  1.0000
  O   O10       1.0  0.31300  0.15700  0.38600  1.0000
  O   O11       1.0  0.84300  0.68700  0.38600  1.0000
  O   O12       1.0  0.84300  0.15700  0.38600  1.0000
  O   O13       1.0  0.33300  0.66700  0.88900  1.0000
  O   O14       1.0  0.66700  0.33300  0.11100  1.0000
  O   O15       1.0  0.33300  0.66700  0.41400  1.0000
  O   O16       1.0  0.66700  0.33300  0.58600  1.0000
  Si  Si1       1.0  0.33300  0.66700  0.23100  1.0000
  Si  Si2       1.0  0.66700  0.33300  0.76900  1.0000
  Sn  Sn1       1.0  0.16500  0.83500  0.84300  1.0000
  Sn  Sn2       1.0  0.16500  0.33000  0.84300  1.0000
  Sn  Sn3       1.0  0.67000  0.83500  0.84300  1.0000
  Sn  Sn4       1.0  0.33000  0.16500  0.15700  1.0000
  Sn  Sn5       1.0  0.83500  0.67000  0.15700  1.0000
  Sn  Sn6       1.0  0.83500  0.16500  0.15700  1.0000
  Sn  Sn7       1.0  0.00000  0.00000  0.50000  1.0000
