data_image0
_chemical_formula_structural       Ca4I2N2
_chemical_formula_sum              "Ca4 I2 N2"
_cell_length_a       3.79328
_cell_length_b       3.7935
_cell_length_c       14.5749
_cell_angle_alpha    90
_cell_angle_beta     90
_cell_angle_gamma    119.998

_space_group_name_H-M_alt    "P 1"
_space_group_IT_number       1

loop_
  _space_group_symop_operation_xyz
  'x, y, z'

loop_
  _atom_site_type_symbol
  _atom_site_label
  _atom_site_symmetry_multiplicity
  _atom_site_fract_x
  _atom_site_fract_y
  _atom_site_fract_z
  _atom_site_occupancy
  Ca  Ca1       1.0  0.33300  0.66700  0.08240  1.0000
  Ca  Ca2       1.0  0.33300  0.66700  0.41800  1.0000
  Ca  Ca3       1.0  0.66700  0.33300  0.58200  1.0000
  Ca  Ca4       1.0  0.66700  0.33300  0.91800  1.0000
  I   I1        1.0  0.66700  0.33300  0.25000  1.0000
  I   I2        1.0  0.33300  0.66700  0.75000  1.0000
  N   N1        1.0  0.00000  0.00000  0.00000  1.0000
  N   N2        1.0  0.00000  0.00000  0.50000  1.0000
