data_image0
_chemical_formula_structural       Br12Se16Ta6
_chemical_formula_sum              "Br12 Se16 Ta6"
_cell_length_a       11.2524
_cell_length_b       12.934
_cell_length_c       7.20423
_cell_angle_alpha    102.644
_cell_angle_beta     98.0402
_cell_angle_gamma    70.7477

_space_group_name_H-M_alt    "P 1"
_space_group_IT_number       1

loop_
  _space_group_symop_operation_xyz
  'x, y, z'

loop_
  _atom_site_type_symbol
  _atom_site_label
  _atom_site_symmetry_multiplicity
  _atom_site_fract_x
  _atom_site_fract_y
  _atom_site_fract_z
  _atom_site_occupancy
  Br  Br1       1.0  0.42400  0.15800  0.82200  1.0000
  Br  Br2       1.0  0.57600  0.84200  0.17800  1.0000
  Br  Br3       1.0  0.39900  0.14300  0.30600  1.0000
  Br  Br4       1.0  0.60100  0.85700  0.69400  1.0000
  Br  Br5       1.0  0.29600  0.40200  0.63000  1.0000
  Br  Br6       1.0  0.70400  0.59800  0.37000  1.0000
  Br  Br7       1.0  0.57600  0.33100  0.37800  1.0000
  Br  Br8       1.0  0.42400  0.66900  0.62200  1.0000
  Br  Br9       1.0  0.60600  0.34400  0.87500  1.0000
  Br  Br10      1.0  0.39400  0.65600  0.12500  1.0000
  Br  Br11      1.0  0.69400  0.07190  0.56400  1.0000
  Br  Br12      1.0  0.30600  0.92800  0.43600  1.0000
  Se  Se1       1.0  0.89200  0.24300  0.74000  1.0000
  Se  Se2       1.0  0.10800  0.75700  0.26000  1.0000
  Se  Se3       1.0  0.11900  0.19600  0.76800  1.0000
  Se  Se4       1.0  0.88100  0.80400  0.23200  1.0000
  Se  Se5       1.0  0.10900  0.24400  0.27000  1.0000
  Se  Se6       1.0  0.89100  0.75600  0.73000  1.0000
  Se  Se7       1.0  0.79800  0.06050  0.00753  1.0000
  Se  Se8       1.0  0.20200  0.93900  0.99200  1.0000
  Se  Se9       1.0  0.94400  0.05050  0.28200  1.0000
  Se  Se10      1.0  0.05580  0.94900  0.71800  1.0000
  Se  Se11      1.0  0.88200  0.31800  0.23000  1.0000
  Se  Se12      1.0  0.11800  0.68200  0.77000  1.0000
  Se  Se13      1.0  0.80000  0.54800  0.93400  1.0000
  Se  Se14      1.0  0.20000  0.45200  0.06620  1.0000
  Se  Se15      1.0  0.95400  0.47600  0.70400  1.0000
  Se  Se16      1.0  0.04620  0.52400  0.29600  1.0000
  Ta  Ta1       1.0  0.00124  0.37500  0.00164  1.0000
  Ta  Ta2       1.0  0.99900  0.62500  0.99800  1.0000
  Ta  Ta3       1.0  0.00170  0.12400  0.00100  1.0000
  Ta  Ta4       1.0  0.99800  0.87600  0.99900  1.0000
  Ta  Ta5       1.0  0.50100  0.24300  0.59300  1.0000
  Ta  Ta6       1.0  0.49900  0.75700  0.40700  1.0000
