data_image0
_chemical_formula_structural       Br30W6
_chemical_formula_sum              "Br30 W6"
_cell_length_a       13.2213
_cell_length_b       13.2213
_cell_length_c       5.96539
_cell_angle_alpha    89.7089
_cell_angle_beta     90.2911
_cell_angle_gamma    91.6816

_space_group_name_H-M_alt    "P 1"
_space_group_IT_number       1

loop_
  _space_group_symop_operation_xyz
  'x, y, z'

loop_
  _atom_site_type_symbol
  _atom_site_label
  _atom_site_symmetry_multiplicity
  _atom_site_fract_x
  _atom_site_fract_y
  _atom_site_fract_z
  _atom_site_occupancy
  Br  Br1       1.0  0.53700  0.66100  0.74900  1.0000
  Br  Br2       1.0  0.66100  0.53700  0.25100  1.0000
  Br  Br3       1.0  0.46300  0.33900  0.25100  1.0000
  Br  Br4       1.0  0.33900  0.46300  0.74900  1.0000
  Br  Br5       1.0  0.58300  0.80600  0.25800  1.0000
  Br  Br6       1.0  0.80600  0.58300  0.74200  1.0000
  Br  Br7       1.0  0.41700  0.19400  0.74200  1.0000
  Br  Br8       1.0  0.19400  0.41700  0.25800  1.0000
  Br  Br9       1.0  0.38700  0.61300  0.27600  1.0000
  Br  Br10      1.0  0.61300  0.38700  0.72400  1.0000
  Br  Br11      1.0  0.32600  0.87100  0.27100  1.0000
  Br  Br12      1.0  0.87100  0.32600  0.72900  1.0000
  Br  Br13      1.0  0.67400  0.12900  0.72900  1.0000
  Br  Br14      1.0  0.12900  0.67400  0.27100  1.0000
  Br  Br15      1.0  0.47300  0.91800  0.75700  1.0000
  Br  Br16      1.0  0.91800  0.47300  0.24300  1.0000
  Br  Br17      1.0  0.52700  0.08180  0.24300  1.0000
  Br  Br18      1.0  0.08180  0.52700  0.75700  1.0000
  Br  Br19      1.0  0.28100  0.71900  0.74800  1.0000
  Br  Br20      1.0  0.71900  0.28100  0.25200  1.0000
  Br  Br21      1.0  0.20400  0.99400  0.76400  1.0000
  Br  Br22      1.0  0.99400  0.20400  0.23600  1.0000
  Br  Br23      1.0  0.79600  0.00577  0.23600  1.0000
  Br  Br24      1.0  0.00577  0.79600  0.76400  1.0000
  Br  Br25      1.0  0.25100  0.14000  0.25200  1.0000
  Br  Br26      1.0  0.14000  0.25100  0.74800  1.0000
  Br  Br27      1.0  0.74900  0.86000  0.74800  1.0000
  Br  Br28      1.0  0.86000  0.74900  0.25200  1.0000
  Br  Br29      1.0  0.05280  0.94700  0.23700  1.0000
  Br  Br30      1.0  0.94700  0.05280  0.76300  1.0000
  W   W1        1.0  0.44200  0.77600  0.51000  1.0000
  W   W2        1.0  0.77600  0.44200  0.49000  1.0000
  W   W3        1.0  0.55800  0.22400  0.49000  1.0000
  W   W4        1.0  0.22400  0.55800  0.51000  1.0000
  W   W5        1.0  0.11000  0.11000  0.00000  1.0000
  W   W6        1.0  0.89000  0.89000  0.00000  1.0000
