data_image0
_chemical_formula_structural       Cl30Ta6
_chemical_formula_sum              "Cl30 Ta6"
_cell_length_a       12.6033
_cell_length_b       12.6033
_cell_length_c       5.73083
_cell_angle_alpha    89.5164
_cell_angle_beta     90.4836
_cell_angle_gamma    91.4791

_space_group_name_H-M_alt    "P 1"
_space_group_IT_number       1

loop_
  _space_group_symop_operation_xyz
  'x, y, z'

loop_
  _atom_site_type_symbol
  _atom_site_label
  _atom_site_symmetry_multiplicity
  _atom_site_fract_x
  _atom_site_fract_y
  _atom_site_fract_z
  _atom_site_occupancy
  Cl  Cl1       1.0  0.58300  0.80500  0.26700  1.0000
  Cl  Cl2       1.0  0.80500  0.58300  0.73300  1.0000
  Cl  Cl3       1.0  0.41700  0.19500  0.73300  1.0000
  Cl  Cl4       1.0  0.19500  0.41700  0.26700  1.0000
  Cl  Cl5       1.0  0.53600  0.66200  0.75300  1.0000
  Cl  Cl6       1.0  0.66200  0.53600  0.24700  1.0000
  Cl  Cl7       1.0  0.46400  0.33800  0.24700  1.0000
  Cl  Cl8       1.0  0.33800  0.46400  0.75300  1.0000
  Cl  Cl9       1.0  0.28100  0.71900  0.74200  1.0000
  Cl  Cl10      1.0  0.71900  0.28100  0.25800  1.0000
  Cl  Cl11      1.0  0.47100  0.91700  0.75900  1.0000
  Cl  Cl12      1.0  0.91700  0.47100  0.24100  1.0000
  Cl  Cl13      1.0  0.52900  0.08300  0.24100  1.0000
  Cl  Cl14      1.0  0.08300  0.52900  0.75900  1.0000
  Cl  Cl15      1.0  0.32700  0.86800  0.27500  1.0000
  Cl  Cl16      1.0  0.86800  0.32700  0.72500  1.0000
  Cl  Cl17      1.0  0.67300  0.13200  0.72500  1.0000
  Cl  Cl18      1.0  0.13200  0.67300  0.27500  1.0000
  Cl  Cl19      1.0  0.38700  0.61300  0.28700  1.0000
  Cl  Cl20      1.0  0.61300  0.38700  0.71300  1.0000
  Cl  Cl21      1.0  0.05270  0.94700  0.23200  1.0000
  Cl  Cl22      1.0  0.94700  0.05270  0.76800  1.0000
  Cl  Cl23      1.0  0.25000  0.13800  0.24900  1.0000
  Cl  Cl24      1.0  0.13800  0.25000  0.75100  1.0000
  Cl  Cl25      1.0  0.75000  0.86200  0.75100  1.0000
  Cl  Cl26      1.0  0.86200  0.75000  0.24900  1.0000
  Cl  Cl27      1.0  0.20200  0.99500  0.76900  1.0000
  Cl  Cl28      1.0  0.99500  0.20200  0.23100  1.0000
  Cl  Cl29      1.0  0.79800  0.00510  0.23100  1.0000
  Cl  Cl30      1.0  0.00510  0.79800  0.76900  1.0000
  Ta  Ta1       1.0  0.11200  0.11200  0.00000  1.0000
  Ta  Ta2       1.0  0.88800  0.88800  0.00000  1.0000
  Ta  Ta3       1.0  0.44500  0.77800  0.51400  1.0000
  Ta  Ta4       1.0  0.77800  0.44500  0.48600  1.0000
  Ta  Ta5       1.0  0.55500  0.22200  0.48600  1.0000
  Ta  Ta6       1.0  0.22200  0.55500  0.51400  1.0000
