data_image0
_chemical_formula_structural       B36C48La40
_chemical_formula_sum              "B36 C48 La40"
_cell_length_a       8.65973
_cell_length_b       8.65973
_cell_length_c       25.4008
_cell_angle_alpha    90
_cell_angle_beta     90
_cell_angle_gamma    90

_space_group_name_H-M_alt    "P 1"
_space_group_IT_number       1

loop_
  _space_group_symop_operation_xyz
  'x, y, z'

loop_
  _atom_site_type_symbol
  _atom_site_label
  _atom_site_symmetry_multiplicity
  _atom_site_fract_x
  _atom_site_fract_y
  _atom_site_fract_z
  _atom_site_occupancy
  B   B1        1.0  0.42100  0.42100  0.00000  1.0000
  B   B2        1.0  0.57900  0.57900  0.50000  1.0000
  B   B3        1.0  0.92100  0.07860  0.75000  1.0000
  B   B4        1.0  0.07860  0.92100  0.25000  1.0000
  B   B5        1.0  0.85700  0.36200  0.38300  1.0000
  B   B6        1.0  0.14300  0.63800  0.88300  1.0000
  B   B7        1.0  0.35700  0.13800  0.36700  1.0000
  B   B8        1.0  0.64300  0.86200  0.86700  1.0000
  B   B9        1.0  0.63800  0.14300  0.11700  1.0000
  B   B10       1.0  0.36200  0.85700  0.61700  1.0000
  B   B11       1.0  0.86200  0.64300  0.13300  1.0000
  B   B12       1.0  0.13800  0.35700  0.63300  1.0000
  B   B13       1.0  0.37600  0.51000  0.10700  1.0000
  B   B14       1.0  0.62400  0.49000  0.60700  1.0000
  B   B15       1.0  0.87600  0.99000  0.64300  1.0000
  B   B16       1.0  0.12400  0.00997  0.14300  1.0000
  B   B17       1.0  0.49000  0.62400  0.39300  1.0000
  B   B18       1.0  0.51000  0.37600  0.89300  1.0000
  B   B19       1.0  0.00997  0.12400  0.85700  1.0000
  B   B20       1.0  0.99000  0.87600  0.35700  1.0000
  B   B21       1.0  0.30300  0.41300  0.15700  1.0000
  B   B22       1.0  0.69800  0.58700  0.65700  1.0000
  B   B23       1.0  0.80300  0.08730  0.59300  1.0000
  B   B24       1.0  0.19700  0.91300  0.09290  1.0000
  B   B25       1.0  0.58700  0.69800  0.34300  1.0000
  B   B26       1.0  0.41300  0.30300  0.84300  1.0000
  B   B27       1.0  0.91300  0.19700  0.90700  1.0000
  B   B28       1.0  0.08730  0.80300  0.40700  1.0000
  B   B29       1.0  0.78100  0.29500  0.27500  1.0000
  B   B30       1.0  0.21900  0.70500  0.77500  1.0000
  B   B31       1.0  0.28100  0.20500  0.47500  1.0000
  B   B32       1.0  0.71900  0.79500  0.97500  1.0000
  B   B33       1.0  0.70500  0.21900  0.22500  1.0000
  B   B34       1.0  0.29500  0.78100  0.72500  1.0000
  B   B35       1.0  0.79500  0.71900  0.02490  1.0000
  B   B36       1.0  0.20500  0.28100  0.52500  1.0000
  C   C1        1.0  0.92400  0.21700  0.96600  1.0000
  C   C2        1.0  0.07570  0.78300  0.46600  1.0000
  C   C3        1.0  0.42400  0.28300  0.78400  1.0000
  C   C4        1.0  0.57600  0.71700  0.28400  1.0000
  C   C5        1.0  0.78300  0.07570  0.53400  1.0000
  C   C6        1.0  0.21700  0.92400  0.03440  1.0000
  C   C7        1.0  0.71700  0.57600  0.71600  1.0000
  C   C8        1.0  0.28300  0.42400  0.21600  1.0000
  C   C9        1.0  0.68900  0.00624  0.43700  1.0000
  C   C10       1.0  0.31100  0.99400  0.93700  1.0000
  C   C11       1.0  0.18900  0.49400  0.31300  1.0000
  C   C12       1.0  0.81100  0.50600  0.81300  1.0000
  C   C13       1.0  0.99400  0.31100  0.06300  1.0000
  C   C14       1.0  0.00624  0.68900  0.56300  1.0000
  C   C15       1.0  0.50600  0.81100  0.18700  1.0000
  C   C16       1.0  0.49400  0.18900  0.68700  1.0000
  C   C17       1.0  0.21100  0.47000  0.26100  1.0000
  C   C18       1.0  0.78900  0.53000  0.76100  1.0000
  C   C19       1.0  0.71100  0.03020  0.48900  1.0000
  C   C20       1.0  0.28900  0.97000  0.98900  1.0000
  C   C21       1.0  0.53000  0.78900  0.23900  1.0000
  C   C22       1.0  0.47000  0.21100  0.73900  1.0000
  C   C23       1.0  0.97000  0.28900  0.01090  1.0000
  C   C24       1.0  0.03020  0.71100  0.51100  1.0000
  C   C25       1.0  0.29700  0.18300  0.41800  1.0000
  C   C26       1.0  0.70300  0.81700  0.91800  1.0000
  C   C27       1.0  0.79700  0.31700  0.33200  1.0000
  C   C28       1.0  0.20300  0.68300  0.83200  1.0000
  C   C29       1.0  0.81700  0.70300  0.08170  1.0000
  C   C30       1.0  0.18300  0.29700  0.58200  1.0000
  C   C31       1.0  0.68300  0.20300  0.16800  1.0000
  C   C32       1.0  0.31700  0.79700  0.66800  1.0000
  C   C33       1.0  0.38600  0.10800  0.31100  1.0000
  C   C34       1.0  0.61400  0.89200  0.81100  1.0000
  C   C35       1.0  0.88600  0.39200  0.43900  1.0000
  C   C36       1.0  0.11400  0.60800  0.93900  1.0000
  C   C37       1.0  0.89200  0.61400  0.18900  1.0000
  C   C38       1.0  0.10800  0.38600  0.68900  1.0000
  C   C39       1.0  0.60800  0.11400  0.06140  1.0000
  C   C40       1.0  0.39200  0.88600  0.56100  1.0000
  C   C41       1.0  0.09640  0.00971  0.20000  1.0000
  C   C42       1.0  0.90400  0.99000  0.70000  1.0000
  C   C43       1.0  0.59600  0.49000  0.55000  1.0000
  C   C44       1.0  0.40400  0.51000  0.04960  1.0000
  C   C45       1.0  0.99000  0.90400  0.30000  1.0000
  C   C46       1.0  0.00971  0.09640  0.80000  1.0000
  C   C47       1.0  0.51000  0.40400  0.95000  1.0000
  C   C48       1.0  0.49000  0.59600  0.45000  1.0000
  La  La1       1.0  0.19500  0.08600  0.69600  1.0000
  La  La2       1.0  0.80500  0.91400  0.19600  1.0000
  La  La3       1.0  0.69500  0.41400  0.05420  1.0000
  La  La4       1.0  0.30500  0.58600  0.55400  1.0000
  La  La5       1.0  0.91400  0.80500  0.80400  1.0000
  La  La6       1.0  0.08600  0.19500  0.30400  1.0000
  La  La7       1.0  0.58600  0.30500  0.44600  1.0000
  La  La8       1.0  0.41400  0.69500  0.94600  1.0000
  La  La9       1.0  0.28600  0.80300  0.32100  1.0000
  La  La10      1.0  0.71400  0.19700  0.82100  1.0000
  La  La11      1.0  0.78600  0.69700  0.42900  1.0000
  La  La12      1.0  0.21400  0.30300  0.92900  1.0000
  La  La13      1.0  0.19700  0.71400  0.17900  1.0000
  La  La14      1.0  0.80300  0.28600  0.67900  1.0000
  La  La15      1.0  0.30300  0.21400  0.07110  1.0000
  La  La16      1.0  0.69700  0.78600  0.57100  1.0000
  La  La17      1.0  0.48300  0.40200  0.31000  1.0000
  La  La18      1.0  0.51700  0.59800  0.81000  1.0000
  La  La19      1.0  0.98300  0.09780  0.44000  1.0000
  La  La20      1.0  0.01650  0.90200  0.94000  1.0000
  La  La21      1.0  0.59800  0.51700  0.19000  1.0000
  La  La22      1.0  0.40200  0.48300  0.69000  1.0000
  La  La23      1.0  0.90200  0.01650  0.06020  1.0000
  La  La24      1.0  0.09780  0.98300  0.56000  1.0000
  La  La25      1.0  0.68300  0.01140  0.33200  1.0000
  La  La26      1.0  0.31700  0.98900  0.83200  1.0000
  La  La27      1.0  0.18300  0.48900  0.41800  1.0000
  La  La28      1.0  0.81700  0.51100  0.91800  1.0000
  La  La29      1.0  0.98900  0.31700  0.16800  1.0000
  La  La30      1.0  0.01140  0.68300  0.66800  1.0000
  La  La31      1.0  0.51100  0.81700  0.08220  1.0000
  La  La32      1.0  0.48900  0.18300  0.58200  1.0000
  La  La33      1.0  0.39700  0.09560  0.20900  1.0000
  La  La34      1.0  0.60300  0.90400  0.70900  1.0000
  La  La35      1.0  0.89700  0.40400  0.54100  1.0000
  La  La36      1.0  0.10300  0.59600  0.04110  1.0000
  La  La37      1.0  0.90400  0.60300  0.29100  1.0000
  La  La38      1.0  0.09560  0.39700  0.79100  1.0000
  La  La39      1.0  0.59600  0.10300  0.95900  1.0000
  La  La40      1.0  0.40400  0.89700  0.45900  1.0000
