data_image0
_chemical_formula_structural       B2Co2H2O18P4Pb2
_chemical_formula_sum              "B2 Co2 H2 O18 P4 Pb2"
_cell_length_a       5.03105
_cell_length_b       7.59071
_cell_length_c       8.21678
_cell_angle_alpha    89.2776
_cell_angle_beta     79.7098
_cell_angle_gamma    87.9094

_space_group_name_H-M_alt    "P 1"
_space_group_IT_number       1

loop_
  _space_group_symop_operation_xyz
  'x, y, z'

loop_
  _atom_site_type_symbol
  _atom_site_label
  _atom_site_symmetry_multiplicity
  _atom_site_fract_x
  _atom_site_fract_y
  _atom_site_fract_z
  _atom_site_occupancy
  B   B1        1.0  0.11200  0.24000  0.45900  1.0000
  B   B2        1.0  0.88800  0.76000  0.54100  1.0000
  Co  Co1       1.0  0.27200  0.20100  0.79900  1.0000
  Co  Co2       1.0  0.72800  0.79900  0.20100  1.0000
  H   H1        1.0  0.48000  0.14500  0.49700  1.0000
  H   H2        1.0  0.52000  0.85500  0.50300  1.0000
  O   O1        1.0  0.51600  0.03260  0.20900  1.0000
  O   O2        1.0  0.48500  0.96700  0.79100  1.0000
  O   O3        1.0  0.44200  0.61500  0.17700  1.0000
  O   O4        1.0  0.55800  0.38500  0.82300  1.0000
  O   O5        1.0  0.29300  0.15200  0.55600  1.0000
  O   O6        1.0  0.70700  0.84800  0.44400  1.0000
  O   O7        1.0  0.27000  0.39000  0.38000  1.0000
  O   O8        1.0  0.73000  0.61000  0.62000  1.0000
  O   O9        1.0  0.23600  0.22300  0.05420  1.0000
  O   O10       1.0  0.76500  0.77700  0.94600  1.0000
  O   O11       1.0  0.14900  0.70900  0.44100  1.0000
  O   O12       1.0  0.85100  0.29100  0.55900  1.0000
  O   O13       1.0  0.10500  0.90100  0.12300  1.0000
  O   O14       1.0  0.89500  0.09890  0.87700  1.0000
  O   O15       1.0  0.03270  0.12900  0.33500  1.0000
  O   O16       1.0  0.96700  0.87100  0.66500  1.0000
  O   O17       1.0  0.05660  0.44100  0.77500  1.0000
  O   O18       1.0  0.94300  0.55900  0.22400  1.0000
  P   P1        1.0  0.22800  0.06500  0.17600  1.0000
  P   P2        1.0  0.77200  0.93500  0.82400  1.0000
  P   P3        1.0  0.19400  0.56800  0.30300  1.0000
  P   P4        1.0  0.80600  0.43200  0.69700  1.0000
  Pb  Pb1       1.0  0.72200  0.31500  0.10000  1.0000
  Pb  Pb2       1.0  0.27800  0.68500  0.89900  1.0000
