data_image0
_chemical_formula_structural       B2Ba2Co2H2O18P4
_chemical_formula_sum              "B2 Ba2 Co2 H2 O18 P4"
_cell_length_a       5.15775
_cell_length_b       7.79897
_cell_length_c       8.07118
_cell_angle_alpha    87.6373
_cell_angle_beta     79.3339
_cell_angle_gamma    87.3835

_space_group_name_H-M_alt    "P 1"
_space_group_IT_number       1

loop_
  _space_group_symop_operation_xyz
  'x, y, z'

loop_
  _atom_site_type_symbol
  _atom_site_label
  _atom_site_symmetry_multiplicity
  _atom_site_fract_x
  _atom_site_fract_y
  _atom_site_fract_z
  _atom_site_occupancy
  B   B1        1.0  0.10600  0.24300  0.45600  1.0000
  B   B2        1.0  0.89400  0.75700  0.54400  1.0000
  Ba  Ba1       1.0  0.72100  0.31400  0.12200  1.0000
  Ba  Ba2       1.0  0.27900  0.68600  0.87800  1.0000
  Co  Co1       1.0  0.27500  0.20400  0.80000  1.0000
  Co  Co2       1.0  0.72500  0.79600  0.20000  1.0000
  H   H1        1.0  0.24200  0.03010  0.56500  1.0000
  H   H2        1.0  0.75800  0.97000  0.43500  1.0000
  O   O1        1.0  0.27400  0.15300  0.55700  1.0000
  O   O2        1.0  0.72600  0.84700  0.44300  1.0000
  O   O3        1.0  0.02800  0.12500  0.33900  1.0000
  O   O4        1.0  0.97200  0.87500  0.66100  1.0000
  O   O5        1.0  0.24400  0.21500  0.05580  1.0000
  O   O6        1.0  0.75600  0.78500  0.94400  1.0000
  O   O7        1.0  0.49900  0.01650  0.22000  1.0000
  O   O8        1.0  0.50100  0.98300  0.78000  1.0000
  O   O9        1.0  0.09670  0.90300  0.12600  1.0000
  O   O10       1.0  0.90300  0.09660  0.87400  1.0000
  O   O11       1.0  0.26800  0.38400  0.37300  1.0000
  O   O12       1.0  0.73200  0.61600  0.62700  1.0000
  O   O13       1.0  0.15300  0.69100  0.45600  1.0000
  O   O14       1.0  0.84700  0.30900  0.54400  1.0000
  O   O15       1.0  0.03660  0.43100  0.78100  1.0000
  O   O16       1.0  0.96300  0.56900  0.21900  1.0000
  O   O17       1.0  0.45000  0.61600  0.18400  1.0000
  O   O18       1.0  0.55000  0.38400  0.81600  1.0000
  P   P1        1.0  0.22700  0.05620  0.17700  1.0000
  P   P2        1.0  0.77300  0.94400  0.82300  1.0000
  P   P3        1.0  0.20100  0.56900  0.30600  1.0000
  P   P4        1.0  0.79900  0.43100  0.69400  1.0000
