data_image0
_chemical_formula_structural       Er8F12Li4O32S8
_chemical_formula_sum              "Er8 F12 Li4 O32 S8"
_cell_length_a       14.1984
_cell_length_b       6.23667
_cell_length_c       7.98387
_cell_angle_alpha    90
_cell_angle_beta     90
_cell_angle_gamma    90

_space_group_name_H-M_alt    "P 1"
_space_group_IT_number       1

loop_
  _space_group_symop_operation_xyz
  'x, y, z'

loop_
  _atom_site_type_symbol
  _atom_site_label
  _atom_site_symmetry_multiplicity
  _atom_site_fract_x
  _atom_site_fract_y
  _atom_site_fract_z
  _atom_site_occupancy
  Er  Er1       1.0  0.10100  0.10900  0.87000  1.0000
  Er  Er2       1.0  0.39900  0.39100  0.37000  1.0000
  Er  Er3       1.0  0.60100  0.39100  0.13000  1.0000
  Er  Er4       1.0  0.89900  0.10900  0.63000  1.0000
  Er  Er5       1.0  0.89900  0.89100  0.13000  1.0000
  Er  Er6       1.0  0.60100  0.60900  0.63000  1.0000
  Er  Er7       1.0  0.39900  0.60900  0.87000  1.0000
  Er  Er8       1.0  0.10100  0.89100  0.37000  1.0000
  F   F1        1.0  0.05260  0.96800  0.62900  1.0000
  F   F2        1.0  0.44700  0.53200  0.12900  1.0000
  F   F3        1.0  0.55300  0.53200  0.37100  1.0000
  F   F4        1.0  0.94700  0.96800  0.87100  1.0000
  F   F5        1.0  0.94700  0.03250  0.37100  1.0000
  F   F6        1.0  0.55300  0.46800  0.87100  1.0000
  F   F7        1.0  0.44700  0.46800  0.62900  1.0000
  F   F8        1.0  0.05260  0.03250  0.12900  1.0000
  F   F9        1.0  0.00000  0.33300  0.75000  1.0000
  F   F10       1.0  0.50000  0.16700  0.25000  1.0000
  F   F11       1.0  0.00000  0.66700  0.25000  1.0000
  F   F12       1.0  0.50000  0.83300  0.75000  1.0000
  Li  Li1       1.0  0.00000  0.63700  0.75000  1.0000
  Li  Li2       1.0  0.50000  0.86300  0.25000  1.0000
  Li  Li3       1.0  0.00000  0.36300  0.25000  1.0000
  Li  Li4       1.0  0.50000  0.13700  0.75000  1.0000
  O   O1        1.0  0.25300  0.54600  0.93400  1.0000
  O   O2        1.0  0.24700  0.95400  0.43400  1.0000
  O   O3        1.0  0.75300  0.95400  0.06560  1.0000
  O   O4        1.0  0.74700  0.54600  0.56600  1.0000
  O   O5        1.0  0.74700  0.45400  0.06560  1.0000
  O   O6        1.0  0.75300  0.04560  0.56600  1.0000
  O   O7        1.0  0.24700  0.04560  0.93400  1.0000
  O   O8        1.0  0.25300  0.45400  0.43400  1.0000
  O   O9        1.0  0.18300  0.71100  0.17200  1.0000
  O   O10       1.0  0.31700  0.78900  0.67200  1.0000
  O   O11       1.0  0.68300  0.78900  0.82800  1.0000
  O   O12       1.0  0.81700  0.71100  0.32800  1.0000
  O   O13       1.0  0.81700  0.28900  0.82800  1.0000
  O   O14       1.0  0.68300  0.21100  0.32800  1.0000
  O   O15       1.0  0.31700  0.21100  0.17200  1.0000
  O   O16       1.0  0.18300  0.28900  0.67200  1.0000
  O   O17       1.0  0.11000  0.40000  0.04300  1.0000
  O   O18       1.0  0.39000  0.09990  0.54300  1.0000
  O   O19       1.0  0.61000  0.09990  0.95700  1.0000
  O   O20       1.0  0.89000  0.40000  0.45700  1.0000
  O   O21       1.0  0.89000  0.60000  0.95700  1.0000
  O   O22       1.0  0.61000  0.90000  0.45700  1.0000
  O   O23       1.0  0.39000  0.90000  0.04300  1.0000
  O   O24       1.0  0.11000  0.60000  0.54300  1.0000
  O   O25       1.0  0.10600  0.73700  0.89900  1.0000
  O   O26       1.0  0.39400  0.76300  0.39900  1.0000
  O   O27       1.0  0.60600  0.76300  0.10100  1.0000
  O   O28       1.0  0.89400  0.73700  0.60100  1.0000
  O   O29       1.0  0.89400  0.26300  0.10100  1.0000
  O   O30       1.0  0.60600  0.23700  0.60100  1.0000
  O   O31       1.0  0.39400  0.23700  0.89900  1.0000
  O   O32       1.0  0.10600  0.26300  0.39900  1.0000
  S   S1        1.0  0.16300  0.60100  0.01410  1.0000
  S   S2        1.0  0.33700  0.89900  0.51400  1.0000
  S   S3        1.0  0.66300  0.89900  0.98600  1.0000
  S   S4        1.0  0.83700  0.60100  0.48600  1.0000
  S   S5        1.0  0.83700  0.39900  0.98600  1.0000
  S   S6        1.0  0.66300  0.10100  0.48600  1.0000
  S   S7        1.0  0.33700  0.10100  0.01410  1.0000
  S   S8        1.0  0.16300  0.39900  0.51400  1.0000
