data_image0
_chemical_formula_structural       CuO6V2
_chemical_formula_sum              "Cu1 O6 V2"
_cell_length_a       3.56966
_cell_length_b       4.84485
_cell_length_c       6.4205
_cell_angle_alpha    111.253
_cell_angle_beta     92.4402
_cell_angle_gamma    70.297

_space_group_name_H-M_alt    "P 1"
_space_group_IT_number       1

loop_
  _space_group_symop_operation_xyz
  'x, y, z'

loop_
  _atom_site_type_symbol
  _atom_site_label
  _atom_site_symmetry_multiplicity
  _atom_site_fract_x
  _atom_site_fract_y
  _atom_site_fract_z
  _atom_site_occupancy
  Cu  Cu1       1.0  0.00000  0.00000  0.00000  1.0000
  O   O1        1.0  0.29000  0.31200  0.10600  1.0000
  O   O2        1.0  0.02020  0.95300  0.28200  1.0000
  O   O3        1.0  0.68700  0.61600  0.43200  1.0000
  O   O4        1.0  0.31300  0.38400  0.56800  1.0000
  O   O5        1.0  0.98000  0.04710  0.71800  1.0000
  O   O6        1.0  0.71000  0.68800  0.89400  1.0000
  V   V1        1.0  0.17500  0.62300  0.35100  1.0000
  V   V2        1.0  0.82500  0.37700  0.64900  1.0000
