data_image0
_chemical_formula_structural       B16La20N36
_chemical_formula_sum              "B16 La20 N36"
_cell_length_a       9.73931
_cell_length_b       12.5245
_cell_length_c       7.63231
_cell_angle_alpha    90
_cell_angle_beta     90
_cell_angle_gamma    90

_space_group_name_H-M_alt    "P 1"
_space_group_IT_number       1

loop_
  _space_group_symop_operation_xyz
  'x, y, z'

loop_
  _atom_site_type_symbol
  _atom_site_label
  _atom_site_symmetry_multiplicity
  _atom_site_fract_x
  _atom_site_fract_y
  _atom_site_fract_z
  _atom_site_occupancy
  B   B1        1.0  0.24500  0.24300  0.25000  1.0000
  B   B2        1.0  0.75500  0.75700  0.75000  1.0000
  B   B3        1.0  0.24500  0.25700  0.75000  1.0000
  B   B4        1.0  0.75500  0.74300  0.25000  1.0000
  B   B5        1.0  0.56600  0.41300  0.25000  1.0000
  B   B6        1.0  0.43400  0.58700  0.75000  1.0000
  B   B7        1.0  0.56600  0.08650  0.75000  1.0000
  B   B8        1.0  0.43400  0.91300  0.25000  1.0000
  B   B9        1.0  0.22600  0.63000  0.59300  1.0000
  B   B10       1.0  0.77400  0.37000  0.09270  1.0000
  B   B11       1.0  0.22600  0.87000  0.40700  1.0000
  B   B12       1.0  0.77400  0.13000  0.90700  1.0000
  B   B13       1.0  0.77400  0.37000  0.40700  1.0000
  B   B14       1.0  0.22600  0.63000  0.90700  1.0000
  B   B15       1.0  0.77400  0.13000  0.59300  1.0000
  B   B16       1.0  0.22600  0.87000  0.09270  1.0000
  La  La1       1.0  0.34600  0.41400  0.49700  1.0000
  La  La2       1.0  0.65400  0.58600  0.99700  1.0000
  La  La3       1.0  0.34600  0.08600  0.50300  1.0000
  La  La4       1.0  0.65400  0.91400  0.00277  1.0000
  La  La5       1.0  0.65400  0.58600  0.50300  1.0000
  La  La6       1.0  0.34600  0.41400  0.00277  1.0000
  La  La7       1.0  0.65400  0.91400  0.49700  1.0000
  La  La8       1.0  0.34600  0.08600  0.99700  1.0000
  La  La9       1.0  0.64200  0.17800  0.25000  1.0000
  La  La10      1.0  0.35800  0.82200  0.75000  1.0000
  La  La11      1.0  0.64200  0.32200  0.75000  1.0000
  La  La12      1.0  0.35800  0.67800  0.25000  1.0000
  La  La13      1.0  0.00294  0.49400  0.25000  1.0000
  La  La14      1.0  0.99700  0.50600  0.75000  1.0000
  La  La15      1.0  0.00294  0.00566  0.75000  1.0000
  La  La16      1.0  0.99700  0.99400  0.25000  1.0000
  La  La17      1.0  0.01150  0.25000  0.00000  1.0000
  La  La18      1.0  0.98900  0.75000  0.50000  1.0000
  La  La19      1.0  0.98900  0.75000  0.00000  1.0000
  La  La20      1.0  0.01150  0.25000  0.50000  1.0000
  N   N1        1.0  0.39400  0.23000  0.25000  1.0000
  N   N2        1.0  0.60600  0.77000  0.75000  1.0000
  N   N3        1.0  0.39400  0.27000  0.75000  1.0000
  N   N4        1.0  0.60600  0.73000  0.25000  1.0000
  N   N5        1.0  0.37700  0.62200  0.58100  1.0000
  N   N6        1.0  0.62300  0.37800  0.08110  1.0000
  N   N7        1.0  0.37700  0.87800  0.41900  1.0000
  N   N8        1.0  0.62300  0.12200  0.91900  1.0000
  N   N9        1.0  0.62300  0.37800  0.41900  1.0000
  N   N10       1.0  0.37700  0.62200  0.91900  1.0000
  N   N11       1.0  0.62300  0.12200  0.58100  1.0000
  N   N12       1.0  0.37700  0.87800  0.08110  1.0000
  N   N13       1.0  0.14100  0.58600  0.45900  1.0000
  N   N14       1.0  0.85900  0.41400  0.95900  1.0000
  N   N15       1.0  0.14100  0.91400  0.54100  1.0000
  N   N16       1.0  0.85900  0.08610  0.04080  1.0000
  N   N17       1.0  0.85900  0.41400  0.54100  1.0000
  N   N18       1.0  0.14100  0.58600  0.04080  1.0000
  N   N19       1.0  0.85900  0.08610  0.45900  1.0000
  N   N20       1.0  0.14100  0.91400  0.95900  1.0000
  N   N21       1.0  0.15900  0.82200  0.25000  1.0000
  N   N22       1.0  0.84100  0.17800  0.75000  1.0000
  N   N23       1.0  0.15900  0.67800  0.75000  1.0000
  N   N24       1.0  0.84100  0.32200  0.25000  1.0000
  N   N25       1.0  0.17700  0.34800  0.25000  1.0000
  N   N26       1.0  0.82300  0.65200  0.75000  1.0000
  N   N27       1.0  0.17700  0.15200  0.75000  1.0000
  N   N28       1.0  0.82300  0.84800  0.25000  1.0000
  N   N29       1.0  0.15700  0.14600  0.25000  1.0000
  N   N30       1.0  0.84300  0.85400  0.75000  1.0000
  N   N31       1.0  0.15700  0.35400  0.75000  1.0000
  N   N32       1.0  0.84300  0.64600  0.25000  1.0000
  N   N33       1.0  0.46800  0.50000  0.25000  1.0000
  N   N34       1.0  0.53200  0.50000  0.75000  1.0000
  N   N35       1.0  0.46800  0.00038  0.75000  1.0000
  N   N36       1.0  0.53200  0.00000  0.25000  1.0000
