data_image0
_chemical_formula_structural       K8S22Ta4
_chemical_formula_sum              "K8 S22 Ta4"
_cell_length_a       7.47522
_cell_length_b       11.4408
_cell_length_c       11.4867
_cell_angle_alpha    69.0247
_cell_angle_beta     87.2522
_cell_angle_gamma    82.516

_space_group_name_H-M_alt    "P 1"
_space_group_IT_number       1

loop_
  _space_group_symop_operation_xyz
  'x, y, z'

loop_
  _atom_site_type_symbol
  _atom_site_label
  _atom_site_symmetry_multiplicity
  _atom_site_fract_x
  _atom_site_fract_y
  _atom_site_fract_z
  _atom_site_occupancy
  K   K1        1.0  0.72900  0.36400  0.50700  1.0000
  K   K2        1.0  0.27100  0.63600  0.49300  1.0000
  K   K3        1.0  0.75100  0.33000  0.06160  1.0000
  K   K4        1.0  0.24900  0.67000  0.93800  1.0000
  K   K5        1.0  0.79300  0.96100  0.38800  1.0000
  K   K6        1.0  0.20700  0.03880  0.61200  1.0000
  K   K7        1.0  0.46100  0.20200  0.82200  1.0000
  K   K8        1.0  0.53900  0.79800  0.17800  1.0000
  S   S1        1.0  0.51800  0.81500  0.63700  1.0000
  S   S2        1.0  0.48200  0.18500  0.36300  1.0000
  S   S3        1.0  0.51700  0.50000  0.74700  1.0000
  S   S4        1.0  0.48300  0.50000  0.25300  1.0000
  S   S5        1.0  0.72600  0.06080  0.63800  1.0000
  S   S6        1.0  0.27400  0.93900  0.36200  1.0000
  S   S7        1.0  0.67900  0.63000  0.91100  1.0000
  S   S8        1.0  0.32100  0.37000  0.08890  1.0000
  S   S9        1.0  0.95700  0.79400  0.67100  1.0000
  S   S10       1.0  0.04330  0.20600  0.32900  1.0000
  S   S11       1.0  0.78300  0.65700  0.45900  1.0000
  S   S12       1.0  0.21700  0.34300  0.54100  1.0000
  S   S13       1.0  0.84800  0.02470  0.81100  1.0000
  S   S14       1.0  0.15200  0.97500  0.18900  1.0000
  S   S15       1.0  0.83200  0.72200  0.99100  1.0000
  S   S16       1.0  0.16800  0.27800  0.00891  1.0000
  S   S17       1.0  0.77700  0.40100  0.76200  1.0000
  S   S18       1.0  0.22300  0.59900  0.23800  1.0000
  S   S19       1.0  0.06540  0.60400  0.73900  1.0000
  S   S20       1.0  0.93500  0.39600  0.26100  1.0000
  S   S21       1.0  0.39900  0.92500  0.88700  1.0000
  S   S22       1.0  0.60100  0.07550  0.11300  1.0000
  Ta  Ta1       1.0  0.66100  0.86300  0.80600  1.0000
  Ta  Ta2       1.0  0.33900  0.13700  0.19400  1.0000
  Ta  Ta3       1.0  0.75700  0.63600  0.66300  1.0000
  Ta  Ta4       1.0  0.24300  0.36400  0.33700  1.0000
