data_image0
_chemical_formula_structural       B2Br15Gd10
_chemical_formula_sum              "B2 Br15 Gd10"
_cell_length_a       9.13601
_cell_length_b       9.92449
_cell_length_c       10.7409
_cell_angle_alpha    91.2159
_cell_angle_beta     114.568
_cell_angle_gamma    110.787

_space_group_name_H-M_alt    "P 1"
_space_group_IT_number       1

loop_
  _space_group_symop_operation_xyz
  'x, y, z'

loop_
  _atom_site_type_symbol
  _atom_site_label
  _atom_site_symmetry_multiplicity
  _atom_site_fract_x
  _atom_site_fract_y
  _atom_site_fract_z
  _atom_site_occupancy
  B   B1        1.0  0.53300  0.18100  0.12400  1.0000
  B   B2        1.0  0.46700  0.81900  0.87600  1.0000
  Br  Br1       1.0  0.00000  0.00000  0.00000  1.0000
  Br  Br2       1.0  0.36000  0.11600  0.41600  1.0000
  Br  Br3       1.0  0.64000  0.88400  0.58400  1.0000
  Br  Br4       1.0  0.11600  0.70000  0.46800  1.0000
  Br  Br5       1.0  0.88400  0.30000  0.53200  1.0000
  Br  Br6       1.0  0.71100  0.23800  0.81900  1.0000
  Br  Br7       1.0  0.28900  0.76200  0.18100  1.0000
  Br  Br8       1.0  0.94200  0.65700  0.77100  1.0000
  Br  Br9       1.0  0.05750  0.34300  0.22900  1.0000
  Br  Br10      1.0  0.40800  0.46300  0.65800  1.0000
  Br  Br11      1.0  0.59200  0.53700  0.34200  1.0000
  Br  Br12      1.0  0.23000  0.40900  0.94200  1.0000
  Br  Br13      1.0  0.77000  0.59100  0.05820  1.0000
  Br  Br14      1.0  0.16500  0.05800  0.70200  1.0000
  Br  Br15      1.0  0.83500  0.94200  0.29800  1.0000
  Gd  Gd1       1.0  0.27700  0.92600  0.95100  1.0000
  Gd  Gd2       1.0  0.72300  0.07440  0.04870  1.0000
  Gd  Gd3       1.0  0.41500  0.95900  0.67600  1.0000
  Gd  Gd4       1.0  0.58500  0.04070  0.32400  1.0000
  Gd  Gd5       1.0  0.47600  0.29600  0.90500  1.0000
  Gd  Gd6       1.0  0.52400  0.70400  0.09500  1.0000
  Gd  Gd7       1.0  0.32500  0.25400  0.17800  1.0000
  Gd  Gd8       1.0  0.67500  0.74600  0.82200  1.0000
  Gd  Gd9       1.0  0.20000  0.59200  0.72200  1.0000
  Gd  Gd10      1.0  0.80000  0.40800  0.27800  1.0000
