data_image0
_chemical_formula_structural       H60Li4N20O12
_chemical_formula_sum              "H60 Li4 N20 O12"
_cell_length_a       11.0067
_cell_length_b       4.90126
_cell_length_c       9.79846
_cell_angle_alpha    90
_cell_angle_beta     90
_cell_angle_gamma    90

_space_group_name_H-M_alt    "P 1"
_space_group_IT_number       1

loop_
  _space_group_symop_operation_xyz
  'x, y, z'

loop_
  _atom_site_type_symbol
  _atom_site_label
  _atom_site_symmetry_multiplicity
  _atom_site_fract_x
  _atom_site_fract_y
  _atom_site_fract_z
  _atom_site_occupancy
  H   H1        1.0  0.02730  0.15700  0.63000  1.0000
  H   H2        1.0  0.97300  0.65700  0.37000  1.0000
  H   H3        1.0  0.47300  0.15700  0.13000  1.0000
  H   H4        1.0  0.52700  0.65700  0.87000  1.0000
  H   H5        1.0  0.93900  0.70200  0.95200  1.0000
  H   H6        1.0  0.06110  0.20200  0.04830  1.0000
  H   H7        1.0  0.56100  0.70200  0.45200  1.0000
  H   H8        1.0  0.43900  0.20200  0.54800  1.0000
  H   H9        1.0  0.65200  0.15000  0.42800  1.0000
  H   H10       1.0  0.34800  0.65000  0.57200  1.0000
  H   H11       1.0  0.84800  0.15000  0.92800  1.0000
  H   H12       1.0  0.15200  0.65000  0.07210  1.0000
  H   H13       1.0  0.83200  0.15200  0.18300  1.0000
  H   H14       1.0  0.16800  0.65200  0.81700  1.0000
  H   H15       1.0  0.66800  0.15200  0.68300  1.0000
  H   H16       1.0  0.33200  0.65200  0.31700  1.0000
  H   H17       1.0  0.03230  0.22300  0.28400  1.0000
  H   H18       1.0  0.96800  0.72300  0.71600  1.0000
  H   H19       1.0  0.46800  0.22300  0.78400  1.0000
  H   H20       1.0  0.53200  0.72300  0.21600  1.0000
  H   H21       1.0  0.12000  0.55300  0.23700  1.0000
  H   H22       1.0  0.88000  0.05340  0.76300  1.0000
  H   H23       1.0  0.38000  0.55300  0.73700  1.0000
  H   H24       1.0  0.62000  0.05340  0.26300  1.0000
  H   H25       1.0  0.49500  0.69400  0.64600  1.0000
  H   H26       1.0  0.50500  0.19400  0.35400  1.0000
  H   H27       1.0  0.00530  0.69400  0.14600  1.0000
  H   H28       1.0  0.99500  0.19400  0.85400  1.0000
  H   H29       1.0  0.67400  0.13900  0.86000  1.0000
  H   H30       1.0  0.32600  0.63900  0.14000  1.0000
  H   H31       1.0  0.82600  0.13900  0.36000  1.0000
  H   H32       1.0  0.17400  0.63900  0.64000  1.0000
  H   H33       1.0  0.76500  0.76900  0.82100  1.0000
  H   H34       1.0  0.23500  0.26900  0.17900  1.0000
  H   H35       1.0  0.73500  0.76900  0.32100  1.0000
  H   H36       1.0  0.26500  0.26900  0.67900  1.0000
  H   H37       1.0  0.99700  0.76200  0.92700  1.0000
  H   H38       1.0  0.00276  0.26200  0.07310  1.0000
  H   H39       1.0  0.50300  0.76200  0.42700  1.0000
  H   H40       1.0  0.49700  0.26200  0.57300  1.0000
  H   H41       1.0  0.53600  0.79200  0.02860  1.0000
  H   H42       1.0  0.46400  0.29200  0.97100  1.0000
  H   H43       1.0  0.96400  0.79200  0.52900  1.0000
  H   H44       1.0  0.03600  0.29200  0.47100  1.0000
  H   H45       1.0  0.54000  0.46400  0.10700  1.0000
  H   H46       1.0  0.46000  0.96400  0.89300  1.0000
  H   H47       1.0  0.96000  0.46400  0.60700  1.0000
  H   H48       1.0  0.03950  0.96400  0.39300  1.0000
  H   H49       1.0  0.87000  0.39300  0.80800  1.0000
  H   H50       1.0  0.13000  0.89300  0.19200  1.0000
  H   H51       1.0  0.63000  0.39300  0.30800  1.0000
  H   H52       1.0  0.37000  0.89300  0.69200  1.0000
  H   H53       1.0  0.73100  0.94500  0.07630  1.0000
  H   H54       1.0  0.26900  0.44500  0.92400  1.0000
  H   H55       1.0  0.76900  0.94500  0.57600  1.0000
  H   H56       1.0  0.23100  0.44500  0.42400  1.0000
  H   H57       1.0  0.60700  0.18800  0.04120  1.0000
  H   H58       1.0  0.39300  0.68800  0.95900  1.0000
  H   H59       1.0  0.89300  0.18800  0.54100  1.0000
  H   H60       1.0  0.10700  0.68800  0.45900  1.0000
  Li  Li1       1.0  0.72800  0.50900  0.06240  1.0000
  Li  Li2       1.0  0.27200  0.00881  0.93800  1.0000
  Li  Li3       1.0  0.77200  0.50900  0.56200  1.0000
  Li  Li4       1.0  0.22800  0.00881  0.43800  1.0000
  N   N1        1.0  0.72400  0.61000  0.87200  1.0000
  N   N2        1.0  0.27600  0.11000  0.12800  1.0000
  N   N3        1.0  0.77600  0.61000  0.37200  1.0000
  N   N4        1.0  0.22400  0.11000  0.62800  1.0000
  N   N5        1.0  0.52000  0.27700  0.06040  1.0000
  N   N6        1.0  0.48000  0.77700  0.94000  1.0000
  N   N7        1.0  0.98000  0.27700  0.56000  1.0000
  N   N8        1.0  0.01980  0.77700  0.44000  1.0000
  N   N9        1.0  0.89900  0.20000  0.83700  1.0000
  N   N10       1.0  0.10100  0.70000  0.16300  1.0000
  N   N11       1.0  0.60100  0.20000  0.33700  1.0000
  N   N12       1.0  0.39900  0.70000  0.66300  1.0000
  N   N13       1.0  0.64600  0.50600  0.77900  1.0000
  N   N14       1.0  0.35400  0.00600  0.22100  1.0000
  N   N15       1.0  0.85400  0.50600  0.27900  1.0000
  N   N16       1.0  0.14600  0.00600  0.72100  1.0000
  N   N17       1.0  0.87200  0.21900  0.27500  1.0000
  N   N18       1.0  0.12800  0.71900  0.72500  1.0000
  N   N19       1.0  0.62800  0.21900  0.77500  1.0000
  N   N20       1.0  0.37200  0.71900  0.22500  1.0000
  O   O1        1.0  0.25200  0.62400  0.96300  1.0000
  O   O2        1.0  0.74800  0.12400  0.03740  1.0000
  O   O3        1.0  0.24800  0.62400  0.46300  1.0000
  O   O4        1.0  0.75200  0.12400  0.53700  1.0000
  O   O5        1.0  0.88800  0.73500  0.66800  1.0000
  O   O6        1.0  0.11200  0.23500  0.33200  1.0000
  O   O7        1.0  0.61200  0.73500  0.16800  1.0000
  O   O8        1.0  0.38800  0.23500  0.83200  1.0000
  O   O9        1.0  0.13500  0.12400  0.84400  1.0000
  O   O10       1.0  0.86500  0.62400  0.15600  1.0000
  O   O11       1.0  0.36500  0.12400  0.34400  1.0000
  O   O12       1.0  0.63500  0.62400  0.65600  1.0000
