data_image0
_chemical_formula_structural       CrF6Hg
_chemical_formula_sum              "Cr1 F6 Hg1"
_cell_length_a       4.87051
_cell_length_b       4.87051
_cell_length_c       5.41463
_cell_angle_alpha    90
_cell_angle_beta     116.728
_cell_angle_gamma    60

_space_group_name_H-M_alt    "P 1"
_space_group_IT_number       1

loop_
  _space_group_symop_operation_xyz
  'x, y, z'

loop_
  _atom_site_type_symbol
  _atom_site_label
  _atom_site_symmetry_multiplicity
  _atom_site_fract_x
  _atom_site_fract_y
  _atom_site_fract_z
  _atom_site_occupancy
  Cr  Cr1       1.0  0.00000  0.00000  0.00000  1.0000
  F   F1        1.0  0.20700  0.20000  0.22700  1.0000
  F   F2        1.0  0.42700  0.59300  0.22700  1.0000
  F   F3        1.0  0.82000  0.98000  0.22700  1.0000
  F   F4        1.0  0.18000  0.01970  0.77300  1.0000
  F   F5        1.0  0.57300  0.40700  0.77300  1.0000
  F   F6        1.0  0.79300  0.80000  0.77300  1.0000
  Hg  Hg1       1.0  0.00000  0.50000  0.50000  1.0000
