data_image0
_chemical_formula_structural       B2Br15Tb10
_chemical_formula_sum              "B2 Br15 Tb10"
_cell_length_a       9.08181
_cell_length_b       9.86728
_cell_length_c       10.6751
_cell_angle_alpha    91.253
_cell_angle_beta     114.522
_cell_angle_gamma    110.864

_space_group_name_H-M_alt    "P 1"
_space_group_IT_number       1

loop_
  _space_group_symop_operation_xyz
  'x, y, z'

loop_
  _atom_site_type_symbol
  _atom_site_label
  _atom_site_symmetry_multiplicity
  _atom_site_fract_x
  _atom_site_fract_y
  _atom_site_fract_z
  _atom_site_occupancy
  B   B1        1.0  0.53300  0.18100  0.12300  1.0000
  B   B2        1.0  0.46700  0.81900  0.87700  1.0000
  Br  Br1       1.0  0.94200  0.65700  0.77000  1.0000
  Br  Br2       1.0  0.05840  0.34300  0.23000  1.0000
  Br  Br3       1.0  0.00000  0.00000  0.00000  1.0000
  Br  Br4       1.0  0.40900  0.46200  0.65800  1.0000
  Br  Br5       1.0  0.59100  0.53800  0.34200  1.0000
  Br  Br6       1.0  0.16400  0.05670  0.70100  1.0000
  Br  Br7       1.0  0.83600  0.94300  0.29900  1.0000
  Br  Br8       1.0  0.22900  0.40900  0.94100  1.0000
  Br  Br9       1.0  0.77100  0.59100  0.05880  1.0000
  Br  Br10      1.0  0.36100  0.11700  0.41600  1.0000
  Br  Br11      1.0  0.63900  0.88300  0.58400  1.0000
  Br  Br12      1.0  0.11600  0.70000  0.46800  1.0000
  Br  Br13      1.0  0.88400  0.30000  0.53200  1.0000
  Br  Br14      1.0  0.71200  0.23900  0.81900  1.0000
  Br  Br15      1.0  0.28800  0.76100  0.18100  1.0000
  Tb  Tb1       1.0  0.27800  0.92500  0.95100  1.0000
  Tb  Tb2       1.0  0.72200  0.07460  0.04870  1.0000
  Tb  Tb3       1.0  0.47600  0.29500  0.90500  1.0000
  Tb  Tb4       1.0  0.52400  0.70500  0.09500  1.0000
  Tb  Tb5       1.0  0.41600  0.95900  0.67600  1.0000
  Tb  Tb6       1.0  0.58400  0.04090  0.32400  1.0000
  Tb  Tb7       1.0  0.20000  0.59200  0.72300  1.0000
  Tb  Tb8       1.0  0.80000  0.40800  0.27700  1.0000
  Tb  Tb9       1.0  0.32600  0.25400  0.17800  1.0000
  Tb  Tb10      1.0  0.67400  0.74600  0.82200  1.0000
