data_image0
_chemical_formula_structural       Ce2In4Pd2
_chemical_formula_sum              "Ce2 In4 Pd2"
_cell_length_a       4.68723
_cell_length_b       5.92328
_cell_length_c       7.57028
_cell_angle_alpha    90
_cell_angle_beta     90
_cell_angle_gamma    66.6928

_space_group_name_H-M_alt    "P 1"
_space_group_IT_number       1

loop_
  _space_group_symop_operation_xyz
  'x, y, z'

loop_
  _atom_site_type_symbol
  _atom_site_label
  _atom_site_symmetry_multiplicity
  _atom_site_fract_x
  _atom_site_fract_y
  _atom_site_fract_z
  _atom_site_occupancy
  Ce  Ce1       1.0  0.92400  0.15200  0.25000  1.0000
  Ce  Ce2       1.0  0.07590  0.84800  0.75000  1.0000
  In  In1       1.0  0.63900  0.72200  0.05040  1.0000
  In  In2       1.0  0.63900  0.72200  0.45000  1.0000
  In  In3       1.0  0.36100  0.27800  0.55000  1.0000
  In  In4       1.0  0.36100  0.27800  0.95000  1.0000
  Pd  Pd1       1.0  0.20700  0.58500  0.25000  1.0000
  Pd  Pd2       1.0  0.79300  0.41500  0.75000  1.0000
