data_image0
_chemical_formula_structural       Bi18I6Rh4
_chemical_formula_sum              "Bi18 I6 Rh4"
_cell_length_a       7.49078
_cell_length_b       13.6103
_cell_length_c       8.63899
_cell_angle_alpha    90
_cell_angle_beta     108.163
_cell_angle_gamma    90

_space_group_name_H-M_alt    "P 1"
_space_group_IT_number       1

loop_
  _space_group_symop_operation_xyz
  'x, y, z'

loop_
  _atom_site_type_symbol
  _atom_site_label
  _atom_site_symmetry_multiplicity
  _atom_site_fract_x
  _atom_site_fract_y
  _atom_site_fract_z
  _atom_site_occupancy
  Bi  Bi1       1.0  0.32600  0.97200  0.14200  1.0000
  Bi  Bi2       1.0  0.67400  0.47200  0.85800  1.0000
  Bi  Bi3       1.0  0.67400  0.02840  0.85800  1.0000
  Bi  Bi4       1.0  0.32600  0.52800  0.14200  1.0000
  Bi  Bi5       1.0  0.16800  0.13500  0.39200  1.0000
  Bi  Bi6       1.0  0.83200  0.63500  0.60800  1.0000
  Bi  Bi7       1.0  0.83200  0.86500  0.60800  1.0000
  Bi  Bi8       1.0  0.16800  0.36500  0.39200  1.0000
  Bi  Bi9       1.0  0.14600  0.04050  0.79300  1.0000
  Bi  Bi10      1.0  0.85400  0.54100  0.20700  1.0000
  Bi  Bi11      1.0  0.85400  0.95900  0.20700  1.0000
  Bi  Bi12      1.0  0.14600  0.45900  0.79300  1.0000
  Bi  Bi13      1.0  0.90800  0.25000  0.81200  1.0000
  Bi  Bi14      1.0  0.09240  0.75000  0.18800  1.0000
  Bi  Bi15      1.0  0.30000  0.25000  0.12300  1.0000
  Bi  Bi16      1.0  0.70000  0.75000  0.87700  1.0000
  Bi  Bi17      1.0  0.81300  0.25000  0.16100  1.0000
  Bi  Bi18      1.0  0.18700  0.75000  0.83900  1.0000
  I   I1        1.0  0.66300  0.10800  0.45600  1.0000
  I   I2        1.0  0.33700  0.60800  0.54400  1.0000
  I   I3        1.0  0.33700  0.89200  0.54400  1.0000
  I   I4        1.0  0.66300  0.39200  0.45600  1.0000
  I   I5        1.0  0.42200  0.25000  0.77600  1.0000
  I   I6        1.0  0.57800  0.75000  0.22400  1.0000
  Rh  Rh1       1.0  0.01950  0.10100  0.05500  1.0000
  Rh  Rh2       1.0  0.98000  0.60100  0.94500  1.0000
  Rh  Rh3       1.0  0.98000  0.89900  0.94500  1.0000
  Rh  Rh4       1.0  0.01950  0.39900  0.05500  1.0000
