data_image0
_chemical_formula_structural       Te18Zr15
_chemical_formula_sum              "Te18 Zr15"
_cell_length_a       11.8023
_cell_length_b       11.8022
_cell_length_c       7.12268
_cell_angle_alpha    90.0013
_cell_angle_beta     90
_cell_angle_gamma    120

_space_group_name_H-M_alt    "P 1"
_space_group_IT_number       1

loop_
  _space_group_symop_operation_xyz
  'x, y, z'

loop_
  _atom_site_type_symbol
  _atom_site_label
  _atom_site_symmetry_multiplicity
  _atom_site_fract_x
  _atom_site_fract_y
  _atom_site_fract_z
  _atom_site_occupancy
  Te  Te1       1.0  0.21200  0.10600  0.29000  1.0000
  Te  Te2       1.0  0.89400  0.10600  0.29000  1.0000
  Te  Te3       1.0  0.89400  0.78800  0.29000  1.0000
  Te  Te4       1.0  0.10600  0.89400  0.71000  1.0000
  Te  Te5       1.0  0.78900  0.89400  0.71000  1.0000
  Te  Te6       1.0  0.10600  0.21200  0.71000  1.0000
  Te  Te7       1.0  0.55900  0.11900  0.20700  1.0000
  Te  Te8       1.0  0.88100  0.44100  0.20700  1.0000
  Te  Te9       1.0  0.55900  0.44100  0.20700  1.0000
  Te  Te10      1.0  0.44100  0.88100  0.79300  1.0000
  Te  Te11      1.0  0.44100  0.55900  0.79300  1.0000
  Te  Te12      1.0  0.11900  0.55900  0.79300  1.0000
  Te  Te13      1.0  0.45000  0.22500  0.75600  1.0000
  Te  Te14      1.0  0.77500  0.22500  0.75600  1.0000
  Te  Te15      1.0  0.77500  0.55000  0.75600  1.0000
  Te  Te16      1.0  0.22500  0.77500  0.24400  1.0000
  Te  Te17      1.0  0.55000  0.77500  0.24400  1.0000
  Te  Te18      1.0  0.22500  0.45000  0.24400  1.0000
  Zr  Zr1       1.0  0.36300  0.36300  0.50000  1.0000
  Zr  Zr2       1.0  0.63700  0.00000  0.50000  1.0000
  Zr  Zr3       1.0  0.00000  0.63700  0.50000  1.0000
  Zr  Zr4       1.0  0.63700  0.63700  0.50000  1.0000
  Zr  Zr5       1.0  0.36300  0.00000  0.50000  1.0000
  Zr  Zr6       1.0  0.00000  0.36300  0.50000  1.0000
  Zr  Zr7       1.0  0.29800  0.00000  1.00000  1.0000
  Zr  Zr8       1.0  0.00002  0.29800  0.00000  1.0000
  Zr  Zr9       1.0  0.70200  0.70200  0.00001  1.0000
  Zr  Zr10      1.0  0.70200  0.00000  1.00000  1.0000
  Zr  Zr11      1.0  0.00000  0.70200  0.00000  1.0000
  Zr  Zr12      1.0  0.29800  0.29800  0.00001  1.0000
  Zr  Zr13      1.0  0.66700  0.33300  0.48800  1.0000
  Zr  Zr14      1.0  0.33300  0.66700  0.51200  1.0000
  Zr  Zr15      1.0  0.00001  0.00000  0.00000  1.0000
