data_image0
_chemical_formula_structural       Ca4Co2O14Si4
_chemical_formula_sum              "Ca4 Co2 O14 Si4"
_cell_length_a       7.64273
_cell_length_b       7.64273
_cell_length_c       4.90684
_cell_angle_alpha    90
_cell_angle_beta     90
_cell_angle_gamma    90

_space_group_name_H-M_alt    "P 1"
_space_group_IT_number       1

loop_
  _space_group_symop_operation_xyz
  'x, y, z'

loop_
  _atom_site_type_symbol
  _atom_site_label
  _atom_site_symmetry_multiplicity
  _atom_site_fract_x
  _atom_site_fract_y
  _atom_site_fract_z
  _atom_site_occupancy
  Ca  Ca1       1.0  0.33600  0.16400  0.50300  1.0000
  Ca  Ca2       1.0  0.66400  0.83600  0.50300  1.0000
  Ca  Ca3       1.0  0.16400  0.66400  0.49700  1.0000
  Ca  Ca4       1.0  0.83600  0.33600  0.49700  1.0000
  Co  Co1       1.0  0.00000  0.00000  0.00000  1.0000
  Co  Co2       1.0  0.50000  0.50000  0.00000  1.0000
  O   O1        1.0  0.31800  0.41800  0.76400  1.0000
  O   O2        1.0  0.68200  0.58200  0.76400  1.0000
  O   O3        1.0  0.41800  0.68200  0.23600  1.0000
  O   O4        1.0  0.58200  0.31800  0.23600  1.0000
  O   O5        1.0  0.08190  0.18200  0.76400  1.0000
  O   O6        1.0  0.91800  0.81800  0.76400  1.0000
  O   O7        1.0  0.18200  0.91800  0.23600  1.0000
  O   O8        1.0  0.81800  0.08190  0.23600  1.0000
  O   O9        1.0  0.14500  0.35500  0.25500  1.0000
  O   O10       1.0  0.85500  0.64500  0.25500  1.0000
  O   O11       1.0  0.35500  0.85500  0.74500  1.0000
  O   O12       1.0  0.64500  0.14500  0.74500  1.0000
  O   O13       1.0  0.00000  0.50000  0.81600  1.0000
  O   O14       1.0  0.50000  0.00000  0.18400  1.0000
  Si  Si1       1.0  0.14400  0.35600  0.93000  1.0000
  Si  Si2       1.0  0.85600  0.64400  0.93000  1.0000
  Si  Si3       1.0  0.35600  0.85600  0.07040  1.0000
  Si  Si4       1.0  0.64400  0.14400  0.07040  1.0000
