data_image0
_chemical_formula_structural       B4Se14Tl4
_chemical_formula_sum              "B4 Se14 Tl4"
_cell_length_a       11.3123
_cell_length_b       8.57783
_cell_length_c       11.3123
_cell_angle_alpha    105.346
_cell_angle_beta     142.187
_cell_angle_gamma    90.7033

_space_group_name_H-M_alt    "P 1"
_space_group_IT_number       1

loop_
  _space_group_symop_operation_xyz
  'x, y, z'

loop_
  _atom_site_type_symbol
  _atom_site_label
  _atom_site_symmetry_multiplicity
  _atom_site_fract_x
  _atom_site_fract_y
  _atom_site_fract_z
  _atom_site_occupancy
  B   B1        1.0  0.60700  0.61700  0.45600  1.0000
  B   B2        1.0  0.83900  0.88300  0.49000  1.0000
  B   B3        1.0  0.39300  0.38300  0.54400  1.0000
  B   B4        1.0  0.16100  0.11700  0.51000  1.0000
  Se  Se1       1.0  0.54100  0.75000  0.29100  1.0000
  Se  Se2       1.0  0.45900  0.25000  0.70900  1.0000
  Se  Se3       1.0  0.89500  0.60200  0.66600  1.0000
  Se  Se4       1.0  0.06350  0.89800  0.79300  1.0000
  Se  Se5       1.0  0.10500  0.39800  0.33400  1.0000
  Se  Se6       1.0  0.93600  0.10200  0.20700  1.0000
  Se  Se7       1.0  0.38700  0.36800  0.21900  1.0000
  Se  Se8       1.0  0.85000  0.13200  0.51900  1.0000
  Se  Se9       1.0  0.61300  0.63200  0.78100  1.0000
  Se  Se10      1.0  0.15000  0.86800  0.48100  1.0000
  Se  Se11      1.0  0.56800  0.76800  0.59100  1.0000
  Se  Se12      1.0  0.82300  0.73200  0.30000  1.0000
  Se  Se13      1.0  0.43200  0.23200  0.40900  1.0000
  Se  Se14      1.0  0.17700  0.26800  0.70000  1.0000
  Tl  Tl1       1.0  0.11500  0.81300  0.14600  1.0000
  Tl  Tl2       1.0  0.33300  0.68700  0.80300  1.0000
  Tl  Tl3       1.0  0.88500  0.18700  0.85400  1.0000
  Tl  Tl4       1.0  0.66700  0.31300  0.19700  1.0000
