data_image0
_chemical_formula_structural       Nb4S22Tl8
_chemical_formula_sum              "Nb4 S22 Tl8"
_cell_length_a       7.8645
_cell_length_b       8.92189
_cell_length_c       13.279
_cell_angle_alpha    72.6222
_cell_angle_beta     88.721
_cell_angle_gamma    85.6549

_space_group_name_H-M_alt    "P 1"
_space_group_IT_number       1

loop_
  _space_group_symop_operation_xyz
  'x, y, z'

loop_
  _atom_site_type_symbol
  _atom_site_label
  _atom_site_symmetry_multiplicity
  _atom_site_fract_x
  _atom_site_fract_y
  _atom_site_fract_z
  _atom_site_occupancy
  Nb  Nb1       1.0  0.11800  0.36700  0.30400  1.0000
  Nb  Nb2       1.0  0.88200  0.63300  0.69600  1.0000
  Nb  Nb3       1.0  0.33400  0.10700  0.19000  1.0000
  Nb  Nb4       1.0  0.66600  0.89300  0.81000  1.0000
  S   S1        1.0  0.11400  0.48400  0.81500  1.0000
  S   S2        1.0  0.88600  0.51600  0.18500  1.0000
  S   S3        1.0  0.27200  0.39900  0.11000  1.0000
  S   S4        1.0  0.72800  0.60100  0.89000  1.0000
  S   S5        1.0  0.60700  0.79900  0.63000  1.0000
  S   S6        1.0  0.39300  0.20100  0.37000  1.0000
  S   S7        1.0  0.39300  0.44100  0.34800  1.0000
  S   S8        1.0  0.60700  0.55900  0.65200  1.0000
  S   S9        1.0  0.36600  0.85800  0.33400  1.0000
  S   S10       1.0  0.63400  0.14200  0.66600  1.0000
  S   S11       1.0  0.40800  0.07340  0.74800  1.0000
  S   S12       1.0  0.59200  0.92700  0.25200  1.0000
  S   S13       1.0  0.03430  0.13000  0.25500  1.0000
  S   S14       1.0  0.96600  0.87000  0.74500  1.0000
  S   S15       1.0  0.47300  0.68300  0.88300  1.0000
  S   S16       1.0  0.52700  0.31700  0.11700  1.0000
  S   S17       1.0  0.01420  0.70700  0.53300  1.0000
  S   S18       1.0  0.98600  0.29300  0.46700  1.0000
  S   S19       1.0  0.27100  0.03960  0.04180  1.0000
  S   S20       1.0  0.72900  0.96000  0.95800  1.0000
  S   S21       1.0  0.04120  0.65200  0.24300  1.0000
  S   S22       1.0  0.95900  0.34800  0.75700  1.0000
  Tl  Tl1       1.0  0.50600  0.28100  0.88200  1.0000
  Tl  Tl2       1.0  0.49400  0.71900  0.11800  1.0000
  Tl  Tl3       1.0  0.22300  0.97000  0.56900  1.0000
  Tl  Tl4       1.0  0.77700  0.02990  0.43100  1.0000
  Tl  Tl5       1.0  0.06520  0.76100  0.97400  1.0000
  Tl  Tl6       1.0  0.93500  0.23900  0.02630  1.0000
  Tl  Tl7       1.0  0.24600  0.41800  0.58300  1.0000
  Tl  Tl8       1.0  0.75400  0.58200  0.41700  1.0000
