data_image0
_chemical_formula_structural       S22Ta4Tl8
_chemical_formula_sum              "S22 Ta4 Tl8"
_cell_length_a       7.88347
_cell_length_b       8.94701
_cell_length_c       13.3213
_cell_angle_alpha    72.4944
_cell_angle_beta     88.7076
_cell_angle_gamma    85.5915

_space_group_name_H-M_alt    "P 1"
_space_group_IT_number       1

loop_
  _space_group_symop_operation_xyz
  'x, y, z'

loop_
  _atom_site_type_symbol
  _atom_site_label
  _atom_site_symmetry_multiplicity
  _atom_site_fract_x
  _atom_site_fract_y
  _atom_site_fract_z
  _atom_site_occupancy
  S   S1        1.0  0.88900  0.51200  0.18500  1.0000
  S   S2        1.0  0.11100  0.48800  0.81500  1.0000
  S   S3        1.0  0.27000  0.40000  0.11000  1.0000
  S   S4        1.0  0.73000  0.60000  0.89000  1.0000
  S   S5        1.0  0.47400  0.68200  0.88300  1.0000
  S   S6        1.0  0.52600  0.31800  0.11700  1.0000
  S   S7        1.0  0.27100  0.03950  0.04460  1.0000
  S   S8        1.0  0.72900  0.96100  0.95500  1.0000
  S   S9        1.0  0.39200  0.19800  0.36900  1.0000
  S   S10       1.0  0.60800  0.80200  0.63100  1.0000
  S   S11       1.0  0.39400  0.43900  0.34700  1.0000
  S   S12       1.0  0.60600  0.56100  0.65300  1.0000
  S   S13       1.0  0.36800  0.86200  0.33300  1.0000
  S   S14       1.0  0.63200  0.13800  0.66700  1.0000
  S   S15       1.0  0.40700  0.06950  0.74900  1.0000
  S   S16       1.0  0.59300  0.93100  0.25100  1.0000
  S   S17       1.0  0.03910  0.13100  0.25500  1.0000
  S   S18       1.0  0.96100  0.86900  0.74500  1.0000
  S   S19       1.0  0.01140  0.70600  0.53400  1.0000
  S   S20       1.0  0.98800  0.29400  0.46500  1.0000
  S   S21       1.0  0.04150  0.65000  0.24300  1.0000
  S   S22       1.0  0.95800  0.35000  0.75700  1.0000
  Ta  Ta1       1.0  0.12100  0.36600  0.30300  1.0000
  Ta  Ta2       1.0  0.88000  0.63400  0.69700  1.0000
  Ta  Ta3       1.0  0.33600  0.11000  0.19100  1.0000
  Ta  Ta4       1.0  0.66500  0.89000  0.80900  1.0000
  Tl  Tl1       1.0  0.50400  0.27500  0.88400  1.0000
  Tl  Tl2       1.0  0.49500  0.72500  0.11600  1.0000
  Tl  Tl3       1.0  0.22000  0.96900  0.57000  1.0000
  Tl  Tl4       1.0  0.78000  0.03050  0.43000  1.0000
  Tl  Tl5       1.0  0.06260  0.76100  0.97400  1.0000
  Tl  Tl6       1.0  0.93700  0.23800  0.02670  1.0000
  Tl  Tl7       1.0  0.24500  0.41700  0.58400  1.0000
  Tl  Tl8       1.0  0.75400  0.58200  0.41700  1.0000
