data_image0
_chemical_formula_structural       Gd8Ge12Zn10
_chemical_formula_sum              "Gd8 Ge12 Zn10"
_cell_length_a       9.53483
_cell_length_b       9.53483
_cell_length_c       15.3158
_cell_angle_alpha    90
_cell_angle_beta     90
_cell_angle_gamma    25.6936

_space_group_name_H-M_alt    "P 1"
_space_group_IT_number       1

loop_
  _space_group_symop_operation_xyz
  'x, y, z'

loop_
  _atom_site_type_symbol
  _atom_site_label
  _atom_site_symmetry_multiplicity
  _atom_site_fract_x
  _atom_site_fract_y
  _atom_site_fract_z
  _atom_site_occupancy
  Gd  Gd1       1.0  0.98000  0.98000  0.00000  1.0000
  Gd  Gd2       1.0  0.02010  0.02010  0.50000  1.0000
  Gd  Gd3       1.0  0.17600  0.17600  0.94500  1.0000
  Gd  Gd4       1.0  0.82400  0.82400  0.44500  1.0000
  Gd  Gd5       1.0  0.83300  0.83300  0.80300  1.0000
  Gd  Gd6       1.0  0.16700  0.16700  0.30300  1.0000
  Gd  Gd7       1.0  0.03300  0.03300  0.76300  1.0000
  Gd  Gd8       1.0  0.96700  0.96700  0.26300  1.0000
  Ge  Ge1       1.0  0.77800  0.77800  0.98700  1.0000
  Ge  Ge2       1.0  0.22200  0.22200  0.48700  1.0000
  Ge  Ge3       1.0  0.11100  0.11100  0.11700  1.0000
  Ge  Ge4       1.0  0.88900  0.88900  0.61700  1.0000
  Ge  Ge5       1.0  0.43200  0.43200  0.13000  1.0000
  Ge  Ge6       1.0  0.56800  0.56800  0.63000  1.0000
  Ge  Ge7       1.0  0.56900  0.56900  0.90800  1.0000
  Ge  Ge8       1.0  0.43100  0.43100  0.40800  1.0000
  Ge  Ge9       1.0  0.44100  0.44100  0.85500  1.0000
  Ge  Ge10      1.0  0.55900  0.55900  0.35500  1.0000
  Ge  Ge11      1.0  0.22700  0.22700  0.76400  1.0000
  Ge  Ge12      1.0  0.77300  0.77300  0.26400  1.0000
  Zn  Zn1       1.0  0.35000  0.35000  0.98100  1.0000
  Zn  Zn2       1.0  0.65000  0.65000  0.48100  1.0000
  Zn  Zn3       1.0  0.69900  0.69900  0.12400  1.0000
  Zn  Zn4       1.0  0.30100  0.30100  0.62400  1.0000
  Zn  Zn5       1.0  0.65500  0.65500  0.77400  1.0000
  Zn  Zn6       1.0  0.34500  0.34500  0.27400  1.0000
  Zn  Zn7       1.0  0.56600  0.56600  0.18500  1.0000
  Zn  Zn8       1.0  0.43400  0.43400  0.68500  1.0000
  Zn  Zn9       1.0  0.84800  0.84800  0.12700  1.0000
  Zn  Zn10      1.0  0.15200  0.15200  0.62700  1.0000
