data_image0
_chemical_formula_structural       B16La24N40
_chemical_formula_sum              "B16 La24 N40"
_cell_length_a       9.62271
_cell_length_b       14.6637
_cell_length_c       7.58014
_cell_angle_alpha    90
_cell_angle_beta     89.9987
_cell_angle_gamma    90

_space_group_name_H-M_alt    "P 1"
_space_group_IT_number       1

loop_
  _space_group_symop_operation_xyz
  'x, y, z'

loop_
  _atom_site_type_symbol
  _atom_site_label
  _atom_site_symmetry_multiplicity
  _atom_site_fract_x
  _atom_site_fract_y
  _atom_site_fract_z
  _atom_site_occupancy
  B   B1        1.0  0.44100  0.35700  0.53300  1.0000
  B   B2        1.0  0.55900  0.85700  0.96700  1.0000
  B   B3        1.0  0.55900  0.64300  0.46700  1.0000
  B   B4        1.0  0.44100  0.14300  0.03340  1.0000
  B   B5        1.0  0.09360  0.74900  0.12300  1.0000
  B   B6        1.0  0.90600  0.24900  0.37700  1.0000
  B   B7        1.0  0.90600  0.25100  0.87700  1.0000
  B   B8        1.0  0.09360  0.75100  0.62300  1.0000
  B   B9        1.0  0.77100  0.60700  0.62400  1.0000
  B   B10       1.0  0.22900  0.10700  0.87600  1.0000
  B   B11       1.0  0.22900  0.39300  0.37600  1.0000
  B   B12       1.0  0.77100  0.89300  0.12400  1.0000
  B   B13       1.0  0.44000  0.14700  0.71900  1.0000
  B   B14       1.0  0.56000  0.64700  0.78100  1.0000
  B   B15       1.0  0.56000  0.85300  0.28100  1.0000
  B   B16       1.0  0.44000  0.35300  0.21900  1.0000
  La  La1       1.0  0.68100  0.46600  0.36400  1.0000
  La  La2       1.0  0.31900  0.96600  0.13600  1.0000
  La  La3       1.0  0.31900  0.53400  0.63600  1.0000
  La  La4       1.0  0.68100  0.03360  0.86400  1.0000
  La  La5       1.0  0.98800  0.61300  0.37000  1.0000
  La  La6       1.0  0.01160  0.11300  0.13000  1.0000
  La  La7       1.0  0.01160  0.38700  0.63000  1.0000
  La  La8       1.0  0.98800  0.88700  0.87000  1.0000
  La  La9       1.0  0.69900  0.69200  0.12200  1.0000
  La  La10      1.0  0.30100  0.19200  0.37800  1.0000
  La  La11      1.0  0.30100  0.30800  0.87800  1.0000
  La  La12      1.0  0.69900  0.80800  0.62200  1.0000
  La  La13      1.0  0.67600  0.47100  0.88300  1.0000
  La  La14      1.0  0.32400  0.97100  0.61700  1.0000
  La  La15      1.0  0.32400  0.52900  0.11700  1.0000
  La  La16      1.0  0.67600  0.02900  0.38300  1.0000
  La  La17      1.0  0.67500  0.25300  0.62400  1.0000
  La  La18      1.0  0.32500  0.75300  0.87600  1.0000
  La  La19      1.0  0.32500  0.74700  0.37600  1.0000
  La  La20      1.0  0.67500  0.24700  0.12400  1.0000
  La  La21      1.0  0.99500  0.61100  0.87700  1.0000
  La  La22      1.0  0.00527  0.11100  0.62300  1.0000
  La  La23      1.0  0.00527  0.38900  0.12300  1.0000
  La  La24      1.0  0.99500  0.88900  0.37700  1.0000
  N   N1        1.0  0.94300  0.73800  0.12100  1.0000
  N   N2        1.0  0.05700  0.23800  0.37900  1.0000
  N   N3        1.0  0.05700  0.26200  0.87900  1.0000
  N   N4        1.0  0.94300  0.76200  0.62100  1.0000
  N   N5        1.0  0.13800  0.47100  0.37600  1.0000
  N   N6        1.0  0.86200  0.97100  0.12400  1.0000
  N   N7        1.0  0.86200  0.52900  0.62400  1.0000
  N   N8        1.0  0.13800  0.02870  0.87600  1.0000
  N   N9        1.0  0.52700  0.40000  0.66100  1.0000
  N   N10       1.0  0.47300  0.90000  0.83900  1.0000
  N   N11       1.0  0.47300  0.60000  0.33900  1.0000
  N   N12       1.0  0.52700  0.10000  0.16100  1.0000
  N   N13       1.0  0.83700  0.33900  0.37800  1.0000
  N   N14       1.0  0.16300  0.83900  0.12200  1.0000
  N   N15       1.0  0.16300  0.66100  0.62200  1.0000
  N   N16       1.0  0.83700  0.16100  0.87800  1.0000
  N   N17       1.0  0.71300  0.64000  0.45300  1.0000
  N   N18       1.0  0.28700  0.14000  0.04700  1.0000
  N   N19       1.0  0.28700  0.36000  0.54700  1.0000
  N   N20       1.0  0.71300  0.86000  0.95300  1.0000
  N   N21       1.0  0.71400  0.64200  0.79200  1.0000
  N   N22       1.0  0.28600  0.14200  0.70800  1.0000
  N   N23       1.0  0.28600  0.35800  0.20800  1.0000
  N   N24       1.0  0.71400  0.85800  0.29200  1.0000
  N   N25       1.0  0.52600  0.39100  0.08540  1.0000
  N   N26       1.0  0.47400  0.89100  0.41500  1.0000
  N   N27       1.0  0.47400  0.60900  0.91500  1.0000
  N   N28       1.0  0.52600  0.10900  0.58500  1.0000
  N   N29       1.0  0.50800  0.31300  0.37800  1.0000
  N   N30       1.0  0.49200  0.81300  0.12200  1.0000
  N   N31       1.0  0.49200  0.68700  0.62200  1.0000
  N   N32       1.0  0.50800  0.18700  0.87800  1.0000
  N   N33       1.0  0.81700  0.33300  0.87400  1.0000
  N   N34       1.0  0.18300  0.83300  0.62600  1.0000
  N   N35       1.0  0.18300  0.66700  0.12600  1.0000
  N   N36       1.0  0.81700  0.16700  0.37400  1.0000
  N   N37       1.0  0.15700  0.47800  0.86900  1.0000
  N   N38       1.0  0.84300  0.97800  0.63100  1.0000
  N   N39       1.0  0.84300  0.52200  0.13100  1.0000
  N   N40       1.0  0.15700  0.02230  0.36900  1.0000
