data_image0
_chemical_formula_structural       Er4O18Se6
_chemical_formula_sum              "Er4 O18 Se6"
_cell_length_a       6.78764
_cell_length_b       7.64195
_cell_length_c       8.44914
_cell_angle_alpha    71.9768
_cell_angle_beta     72.5612
_cell_angle_gamma    66.4832

_space_group_name_H-M_alt    "P 1"
_space_group_IT_number       1

loop_
  _space_group_symop_operation_xyz
  'x, y, z'

loop_
  _atom_site_type_symbol
  _atom_site_label
  _atom_site_symmetry_multiplicity
  _atom_site_fract_x
  _atom_site_fract_y
  _atom_site_fract_z
  _atom_site_occupancy
  Er  Er1       1.0  0.24800  0.27700  0.20500  1.0000
  Er  Er2       1.0  0.75200  0.72300  0.79500  1.0000
  Er  Er3       1.0  0.68100  0.26800  0.41300  1.0000
  Er  Er4       1.0  0.31900  0.73200  0.58700  1.0000
  O   O1        1.0  0.32400  0.18900  0.94800  1.0000
  O   O2        1.0  0.67600  0.81100  0.05250  1.0000
  O   O3        1.0  0.65900  0.04800  0.68700  1.0000
  O   O4        1.0  0.34100  0.95200  0.31300  1.0000
  O   O5        1.0  0.48600  0.40700  0.65500  1.0000
  O   O6        1.0  0.51400  0.59300  0.34500  1.0000
  O   O7        1.0  0.83500  0.40800  0.84900  1.0000
  O   O8        1.0  0.16500  0.59200  0.15100  1.0000
  O   O9        1.0  0.58800  0.28400  0.13800  1.0000
  O   O10       1.0  0.41200  0.71600  0.86200  1.0000
  O   O11       1.0  0.92100  0.33300  0.15700  1.0000
  O   O12       1.0  0.07900  0.66700  0.84300  1.0000
  O   O13       1.0  0.12400  0.01810  0.67400  1.0000
  O   O14       1.0  0.87600  0.98200  0.32600  1.0000
  O   O15       1.0  0.96400  0.33300  0.45400  1.0000
  O   O16       1.0  0.03590  0.66700  0.54600  1.0000
  O   O17       1.0  0.36800  0.22500  0.44400  1.0000
  O   O18       1.0  0.63200  0.77500  0.55600  1.0000
  Se  Se1       1.0  0.56600  0.21100  0.82000  1.0000
  Se  Se2       1.0  0.43400  0.78900  0.18000  1.0000
  Se  Se3       1.0  0.13300  0.25000  0.60300  1.0000
  Se  Se4       1.0  0.86700  0.75000  0.39700  1.0000
  Se  Se5       1.0  0.85800  0.23000  0.03060  1.0000
  Se  Se6       1.0  0.14200  0.77000  0.96900  1.0000
