data_image0
_chemical_formula_structural       CoF12O4S2Sb2
_chemical_formula_sum              "Co1 F12 O4 S2 Sb2"
_cell_length_a       4.56941
_cell_length_b       6.96122
_cell_length_c       7.46397
_cell_angle_alpha    97.4683
_cell_angle_beta     91.7411
_cell_angle_gamma    97.7589

_space_group_name_H-M_alt    "P 1"
_space_group_IT_number       1

loop_
  _space_group_symop_operation_xyz
  'x, y, z'

loop_
  _atom_site_type_symbol
  _atom_site_label
  _atom_site_symmetry_multiplicity
  _atom_site_fract_x
  _atom_site_fract_y
  _atom_site_fract_z
  _atom_site_occupancy
  Co  Co1       1.0  0.50000  0.50000  0.50000  1.0000
  F   F1        1.0  0.87700  0.66700  0.46800  1.0000
  F   F2        1.0  0.12300  0.33300  0.53200  1.0000
  F   F3        1.0  0.23600  0.82800  0.05100  1.0000
  F   F4        1.0  0.76400  0.17200  0.94900  1.0000
  F   F5        1.0  0.79200  0.53400  0.10700  1.0000
  F   F6        1.0  0.20800  0.46600  0.89300  1.0000
  F   F7        1.0  0.24900  0.95700  0.40500  1.0000
  F   F8        1.0  0.75100  0.04350  0.59500  1.0000
  F   F9        1.0  0.74000  0.90900  0.21900  1.0000
  F   F10       1.0  0.26000  0.09070  0.78100  1.0000
  F   F11       1.0  0.34400  0.59800  0.27900  1.0000
  F   F12       1.0  0.65600  0.40200  0.72100  1.0000
  O   O1        1.0  0.84000  0.75500  0.82300  1.0000
  O   O2        1.0  0.16000  0.24500  0.17700  1.0000
  O   O3        1.0  0.36500  0.71400  0.65500  1.0000
  O   O4        1.0  0.63500  0.28600  0.34500  1.0000
  S   S1        1.0  0.56100  0.82300  0.80500  1.0000
  S   S2        1.0  0.43900  0.17700  0.19500  1.0000
  Sb  Sb1       1.0  0.02800  0.74700  0.24700  1.0000
  Sb  Sb2       1.0  0.97200  0.25300  0.75300  1.0000
