data_image0
_chemical_formula_structural       H42Li2N14P2S6
_chemical_formula_sum              "H42 Li2 N14 P2 S6"
_cell_length_a       6.62409
_cell_length_b       6.5837
_cell_length_c       12.452
_cell_angle_alpha    87.4033
_cell_angle_beta     88.8988
_cell_angle_gamma    75.2458

_space_group_name_H-M_alt    "P 1"
_space_group_IT_number       1

loop_
  _space_group_symop_operation_xyz
  'x, y, z'

loop_
  _atom_site_type_symbol
  _atom_site_label
  _atom_site_symmetry_multiplicity
  _atom_site_fract_x
  _atom_site_fract_y
  _atom_site_fract_z
  _atom_site_occupancy
  H   H1        1.0  0.64500  0.41800  0.96000  1.0000
  H   H2        1.0  0.35500  0.58200  0.03960  1.0000
  H   H3        1.0  0.76100  0.31300  0.07230  1.0000
  H   H4        1.0  0.23900  0.68700  0.92800  1.0000
  H   H5        1.0  0.33300  0.36000  0.27100  1.0000
  H   H6        1.0  0.66700  0.64000  0.72900  1.0000
  H   H7        1.0  0.78200  0.17400  0.96300  1.0000
  H   H8        1.0  0.21800  0.82600  0.03660  1.0000
  H   H9        1.0  0.15300  0.38200  0.95400  1.0000
  H   H10       1.0  0.84700  0.61800  0.04550  1.0000
  H   H11       1.0  0.08310  0.30300  0.07430  1.0000
  H   H12       1.0  0.91700  0.69700  0.92600  1.0000
  H   H13       1.0  0.15000  0.13700  0.97700  1.0000
  H   H14       1.0  0.85000  0.86300  0.02340  1.0000
  H   H15       1.0  0.39100  0.90300  0.22400  1.0000
  H   H16       1.0  0.60900  0.09710  0.77600  1.0000
  H   H17       1.0  0.65100  0.87500  0.21700  1.0000
  H   H18       1.0  0.34900  0.12500  0.78300  1.0000
  H   H19       1.0  0.52300  0.83100  0.11300  1.0000
  H   H20       1.0  0.47700  0.16900  0.88700  1.0000
  H   H21       1.0  0.26300  0.58100  0.20100  1.0000
  H   H22       1.0  0.73700  0.41900  0.79900  1.0000
  H   H23       1.0  0.51300  0.48500  0.23100  1.0000
  H   H24       1.0  0.48700  0.51500  0.76900  1.0000
  H   H25       1.0  0.42100  0.34400  0.49900  1.0000
  H   H26       1.0  0.57900  0.65600  0.50100  1.0000
  H   H27       1.0  0.33900  0.41600  0.62300  1.0000
  H   H28       1.0  0.66100  0.58400  0.37700  1.0000
  H   H29       1.0  0.38600  0.85300  0.66600  1.0000
  H   H30       1.0  0.61400  0.14700  0.33400  1.0000
  H   H31       1.0  0.70900  0.34000  0.58500  1.0000
  H   H32       1.0  0.29100  0.66000  0.41500  1.0000
  H   H33       1.0  0.22500  0.94600  0.56000  1.0000
  H   H34       1.0  0.77500  0.05440  0.44000  1.0000
  H   H35       1.0  0.87300  0.50800  0.59400  1.0000
  H   H36       1.0  0.12700  0.49200  0.40600  1.0000
  H   H37       1.0  0.46600  0.16900  0.59900  1.0000
  H   H38       1.0  0.53400  0.83100  0.40100  1.0000
  H   H39       1.0  0.96000  0.28100  0.52600  1.0000
  H   H40       1.0  0.04000  0.71900  0.47400  1.0000
  H   H41       1.0  0.93200  0.27200  0.66300  1.0000
  H   H42       1.0  0.06850  0.72800  0.33700  1.0000
  Li  Li1       1.0  0.44800  0.21300  0.09880  1.0000
  Li  Li2       1.0  0.55200  0.78700  0.90100  1.0000
  N   N1        1.0  0.26000  0.83500  0.62400  1.0000
  N   N2        1.0  0.74000  0.16500  0.37600  1.0000
  N   N3        1.0  0.86900  0.35100  0.59100  1.0000
  N   N4        1.0  0.13100  0.64900  0.40900  1.0000
  N   N5        1.0  0.45800  0.32300  0.57900  1.0000
  N   N6        1.0  0.54200  0.67700  0.42100  1.0000
  N   N7        1.0  0.18700  0.26000  0.01160  1.0000
  N   N8        1.0  0.81300  0.74000  0.98800  1.0000
  N   N9        1.0  0.51200  0.92700  0.17600  1.0000
  N   N10       1.0  0.48800  0.07270  0.82400  1.0000
  N   N11       1.0  0.38000  0.44500  0.20800  1.0000
  N   N12       1.0  0.62000  0.55500  0.79200  1.0000
  N   N13       1.0  0.67900  0.28200  0.00795  1.0000
  N   N14       1.0  0.32100  0.71800  0.99200  1.0000
  P   P1        1.0  0.05310  0.82700  0.70400  1.0000
  P   P2        1.0  0.94700  0.17300  0.29600  1.0000
  S   S1        1.0  0.99600  0.06110  0.80800  1.0000
  S   S2        1.0  0.00440  0.93900  0.19200  1.0000
  S   S3        1.0  0.12300  0.54000  0.77600  1.0000
  S   S4        1.0  0.87700  0.46000  0.22400  1.0000
  S   S5        1.0  0.81400  0.85800  0.59800  1.0000
  S   S6        1.0  0.18600  0.14200  0.40200  1.0000
