data_image0
_chemical_formula_structural       As10Cs14In6Nb2
_chemical_formula_sum              "As10 Cs14 In6 Nb2"
_cell_length_a       8.81606
_cell_length_b       9.65895
_cell_length_c       14.7411
_cell_angle_alpha    85.4902
_cell_angle_beta     86.7391
_cell_angle_gamma    86.8316

_space_group_name_H-M_alt    "P 1"
_space_group_IT_number       1

loop_
  _space_group_symop_operation_xyz
  'x, y, z'

loop_
  _atom_site_type_symbol
  _atom_site_label
  _atom_site_symmetry_multiplicity
  _atom_site_fract_x
  _atom_site_fract_y
  _atom_site_fract_z
  _atom_site_occupancy
  As  As1       1.0  0.39100  0.79800  0.87900  1.0000
  As  As2       1.0  0.60900  0.20200  0.12100  1.0000
  As  As3       1.0  0.41200  0.70600  0.60900  1.0000
  As  As4       1.0  0.58800  0.29400  0.39100  1.0000
  As  As5       1.0  0.08400  0.54600  0.78700  1.0000
  As  As6       1.0  0.91600  0.45400  0.21300  1.0000
  As  As7       1.0  0.51400  0.39700  0.80700  1.0000
  As  As8       1.0  0.48600  0.60300  0.19300  1.0000
  As  As9       1.0  0.04070  0.99800  0.70200  1.0000
  As  As10      1.0  0.95900  0.00214  0.29800  1.0000
  Cs  Cs1       1.0  0.24800  0.01050  0.46600  1.0000
  Cs  Cs2       1.0  0.75200  0.98900  0.53400  1.0000
  Cs  Cs3       1.0  0.19400  0.18600  0.87900  1.0000
  Cs  Cs4       1.0  0.80600  0.81400  0.12100  1.0000
  Cs  Cs5       1.0  0.74900  0.50000  0.97200  1.0000
  Cs  Cs6       1.0  0.25100  0.50000  0.02770  1.0000
  Cs  Cs7       1.0  0.29900  0.33800  0.60000  1.0000
  Cs  Cs8       1.0  0.70100  0.66200  0.40000  1.0000
  Cs  Cs9       1.0  0.69900  0.07910  0.88500  1.0000
  Cs  Cs10      1.0  0.30100  0.92100  0.11500  1.0000
  Cs  Cs11      1.0  0.81700  0.37100  0.63900  1.0000
  Cs  Cs12      1.0  0.18300  0.62900  0.36100  1.0000
  Cs  Cs13      1.0  0.73300  0.74800  0.74900  1.0000
  Cs  Cs14      1.0  0.26700  0.25200  0.25100  1.0000
  In  In1       1.0  0.36900  0.95600  0.70800  1.0000
  In  In2       1.0  0.63100  0.04350  0.29200  1.0000
  In  In3       1.0  0.09040  0.72900  0.62200  1.0000
  In  In4       1.0  0.91000  0.27100  0.37800  1.0000
  In  In5       1.0  0.07210  0.81200  0.86700  1.0000
  In  In6       1.0  0.92800  0.18800  0.13300  1.0000
  Nb  Nb1       1.0  0.35800  0.60600  0.77200  1.0000
  Nb  Nb2       1.0  0.64200  0.39400  0.22800  1.0000
