data_image0
_chemical_formula_structural       Ag6K6S16Ta4
_chemical_formula_sum              "Ag6 K6 S16 Ta4"
_cell_length_a       12.4472
_cell_length_b       12.4472
_cell_length_c       14.0824
_cell_angle_alpha    60.1985
_cell_angle_beta     119.801
_cell_angle_gamma    152.414

_space_group_name_H-M_alt    "P 1"
_space_group_IT_number       1

loop_
  _space_group_symop_operation_xyz
  'x, y, z'

loop_
  _atom_site_type_symbol
  _atom_site_label
  _atom_site_symmetry_multiplicity
  _atom_site_fract_x
  _atom_site_fract_y
  _atom_site_fract_z
  _atom_site_occupancy
  Ag  Ag1       1.0  0.34500  0.08030  0.29900  1.0000
  Ag  Ag2       1.0  0.08030  0.34500  0.20100  1.0000
  Ag  Ag3       1.0  0.65500  0.92000  0.70100  1.0000
  Ag  Ag4       1.0  0.92000  0.65500  0.79900  1.0000
  Ag  Ag5       1.0  0.69200  0.69200  0.25000  1.0000
  Ag  Ag6       1.0  0.30800  0.30800  0.75000  1.0000
  K   K1        1.0  0.00000  0.00000  0.00000  1.0000
  K   K2        1.0  0.00000  1.00000  0.50000  1.0000
  K   K3        1.0  0.63500  0.26000  0.09820  1.0000
  K   K4        1.0  0.26000  0.63500  0.40200  1.0000
  K   K5        1.0  0.36500  0.74000  0.90200  1.0000
  K   K6        1.0  0.74000  0.36500  0.59800  1.0000
  S   S1        1.0  0.10800  0.77800  0.19300  1.0000
  S   S2        1.0  0.77800  0.10800  0.30700  1.0000
  S   S3        1.0  0.89200  0.22200  0.80700  1.0000
  S   S4        1.0  0.22200  0.89200  0.69300  1.0000
  S   S5        1.0  0.54300  0.44300  0.15100  1.0000
  S   S6        1.0  0.44300  0.54300  0.34900  1.0000
  S   S7        1.0  0.45700  0.55700  0.84900  1.0000
  S   S8        1.0  0.55700  0.45700  0.65100  1.0000
  S   S9        1.0  0.01510  0.81600  0.39000  1.0000
  S   S10       1.0  0.81600  0.01510  0.11000  1.0000
  S   S11       1.0  0.98500  0.18400  0.61000  1.0000
  S   S12       1.0  0.18400  0.98500  0.89000  1.0000
  S   S13       1.0  0.72000  0.28200  0.40500  1.0000
  S   S14       1.0  0.28200  0.72000  0.09480  1.0000
  S   S15       1.0  0.28000  0.71800  0.59500  1.0000
  S   S16       1.0  0.71800  0.28000  0.90500  1.0000
  Ta  Ta1       1.0  0.84600  0.58100  0.28600  1.0000
  Ta  Ta2       1.0  0.58100  0.84600  0.21400  1.0000
  Ta  Ta3       1.0  0.15400  0.41900  0.71400  1.0000
  Ta  Ta4       1.0  0.41900  0.15400  0.78600  1.0000
