data_image0
_chemical_formula_structural       Ag6K6Nb4S16
_chemical_formula_sum              "Ag6 K6 Nb4 S16"
_cell_length_a       12.411
_cell_length_b       12.411
_cell_length_c       14.1334
_cell_angle_alpha    59.7817
_cell_angle_beta     120.218
_cell_angle_gamma    152.446

_space_group_name_H-M_alt    "P 1"
_space_group_IT_number       1

loop_
  _space_group_symop_operation_xyz
  'x, y, z'

loop_
  _atom_site_type_symbol
  _atom_site_label
  _atom_site_symmetry_multiplicity
  _atom_site_fract_x
  _atom_site_fract_y
  _atom_site_fract_z
  _atom_site_occupancy
  Ag  Ag1       1.0  0.34800  0.08310  0.29800  1.0000
  Ag  Ag2       1.0  0.08310  0.34800  0.20200  1.0000
  Ag  Ag3       1.0  0.65200  0.91700  0.70200  1.0000
  Ag  Ag4       1.0  0.91700  0.65200  0.79800  1.0000
  Ag  Ag5       1.0  0.69800  0.69800  0.25000  1.0000
  Ag  Ag6       1.0  0.30200  0.30200  0.75000  1.0000
  K   K1        1.0  0.00000  0.00000  0.00000  1.0000
  K   K2        1.0  0.00000  0.00000  0.50000  1.0000
  K   K3        1.0  0.64000  0.26900  0.09560  1.0000
  K   K4        1.0  0.26900  0.64000  0.40400  1.0000
  K   K5        1.0  0.36000  0.73100  0.90400  1.0000
  K   K6        1.0  0.73100  0.36000  0.59600  1.0000
  Nb  Nb1       1.0  0.85000  0.58300  0.28700  1.0000
  Nb  Nb2       1.0  0.58300  0.85000  0.21300  1.0000
  Nb  Nb3       1.0  0.15000  0.41700  0.71300  1.0000
  Nb  Nb4       1.0  0.41700  0.15000  0.78700  1.0000
  S   S1        1.0  0.11300  0.78200  0.19400  1.0000
  S   S2        1.0  0.78200  0.11300  0.30600  1.0000
  S   S3        1.0  0.88700  0.21800  0.80600  1.0000
  S   S4        1.0  0.21800  0.88700  0.69400  1.0000
  S   S5        1.0  0.54400  0.44700  0.15100  1.0000
  S   S6        1.0  0.44700  0.54400  0.34900  1.0000
  S   S7        1.0  0.45600  0.55300  0.84900  1.0000
  S   S8        1.0  0.55300  0.45600  0.65100  1.0000
  S   S9        1.0  0.72200  0.28100  0.40600  1.0000
  S   S10       1.0  0.28100  0.72200  0.09370  1.0000
  S   S11       1.0  0.27800  0.71900  0.59400  1.0000
  S   S12       1.0  0.71900  0.27800  0.90600  1.0000
  S   S13       1.0  0.02120  0.82100  0.39100  1.0000
  S   S14       1.0  0.82100  0.02120  0.10900  1.0000
  S   S15       1.0  0.97900  0.17900  0.60900  1.0000
  S   S16       1.0  0.17900  0.97900  0.89100  1.0000
