data_image0
_chemical_formula_structural       Se22Ta4Tl8
_chemical_formula_sum              "Se22 Ta4 Tl8"
_cell_length_a       7.87038
_cell_length_b       9.07054
_cell_length_c       13.6008
_cell_angle_alpha    73.5836
_cell_angle_beta     89.2087
_cell_angle_gamma    86.1075

_space_group_name_H-M_alt    "P 1"
_space_group_IT_number       1

loop_
  _space_group_symop_operation_xyz
  'x, y, z'

loop_
  _atom_site_type_symbol
  _atom_site_label
  _atom_site_symmetry_multiplicity
  _atom_site_fract_x
  _atom_site_fract_y
  _atom_site_fract_z
  _atom_site_occupancy
  Se  Se1       1.0  0.02030  0.12600  0.24900  1.0000
  Se  Se2       1.0  0.98000  0.87400  0.75100  1.0000
  Se  Se3       1.0  0.26100  0.40400  0.10700  1.0000
  Se  Se4       1.0  0.73900  0.59600  0.89300  1.0000
  Se  Se5       1.0  0.39200  0.07920  0.75300  1.0000
  Se  Se6       1.0  0.60800  0.92100  0.24700  1.0000
  Se  Se7       1.0  0.04830  0.66600  0.24800  1.0000
  Se  Se8       1.0  0.95200  0.33400  0.75200  1.0000
  Se  Se9       1.0  0.13600  0.48900  0.81600  1.0000
  Se  Se10      1.0  0.86400  0.51100  0.18400  1.0000
  Se  Se11      1.0  0.39900  0.45900  0.34700  1.0000
  Se  Se12      1.0  0.60100  0.54100  0.65300  1.0000
  Se  Se13      1.0  0.27600  0.03590  0.03580  1.0000
  Se  Se14      1.0  0.72400  0.96400  0.96400  1.0000
  Se  Se15      1.0  0.02590  0.71000  0.53200  1.0000
  Se  Se16      1.0  0.97400  0.29000  0.46800  1.0000
  Se  Se17      1.0  0.39600  0.18600  0.37300  1.0000
  Se  Se18      1.0  0.60400  0.81400  0.62700  1.0000
  Se  Se19      1.0  0.34900  0.84800  0.33700  1.0000
  Se  Se20      1.0  0.65100  0.15200  0.66300  1.0000
  Se  Se21      1.0  0.44400  0.69000  0.87900  1.0000
  Se  Se22      1.0  0.55600  0.31000  0.12100  1.0000
  Ta  Ta1       1.0  0.33800  0.10700  0.19100  1.0000
  Ta  Ta2       1.0  0.66200  0.89300  0.80900  1.0000
  Ta  Ta3       1.0  0.11700  0.37000  0.30000  1.0000
  Ta  Ta4       1.0  0.88300  0.63000  0.70000  1.0000
  Tl  Tl1       1.0  0.51100  0.28400  0.88600  1.0000
  Tl  Tl2       1.0  0.48900  0.71600  0.11400  1.0000
  Tl  Tl3       1.0  0.21500  0.98100  0.56800  1.0000
  Tl  Tl4       1.0  0.78500  0.01900  0.43200  1.0000
  Tl  Tl5       1.0  0.05750  0.76100  0.98800  1.0000
  Tl  Tl6       1.0  0.94300  0.23900  0.01200  1.0000
  Tl  Tl7       1.0  0.24900  0.41300  0.58000  1.0000
  Tl  Tl8       1.0  0.75100  0.58700  0.42000  1.0000
