data_image0
_chemical_formula_structural       Cs4Ho4S16Si4
_chemical_formula_sum              "Cs4 Ho4 S16 Si4"
_cell_length_a       6.36095
_cell_length_b       6.70465
_cell_length_c       17.835
_cell_angle_alpha    90
_cell_angle_beta     90
_cell_angle_gamma    90

_space_group_name_H-M_alt    "P 1"
_space_group_IT_number       1

loop_
  _space_group_symop_operation_xyz
  'x, y, z'

loop_
  _atom_site_type_symbol
  _atom_site_label
  _atom_site_symmetry_multiplicity
  _atom_site_fract_x
  _atom_site_fract_y
  _atom_site_fract_z
  _atom_site_occupancy
  Cs  Cs1       1.0  0.00089  0.00773  0.03200  1.0000
  Cs  Cs2       1.0  0.99900  0.50800  0.46800  1.0000
  Cs  Cs3       1.0  0.49900  0.99200  0.53200  1.0000
  Cs  Cs4       1.0  0.50100  0.49200  0.96800  1.0000
  Ho  Ho1       1.0  0.29200  0.47900  0.22900  1.0000
  Ho  Ho2       1.0  0.70800  0.97900  0.27100  1.0000
  Ho  Ho3       1.0  0.20800  0.52100  0.72900  1.0000
  Ho  Ho4       1.0  0.79200  0.02130  0.77100  1.0000
  S   S1        1.0  0.05570  0.51300  0.09730  1.0000
  S   S2        1.0  0.56500  0.74900  0.14800  1.0000
  S   S3        1.0  0.60400  0.25300  0.15700  1.0000
  S   S4        1.0  0.10500  0.07850  0.22000  1.0000
  S   S5        1.0  0.89500  0.57800  0.28000  1.0000
  S   S6        1.0  0.39600  0.75300  0.34300  1.0000
  S   S7        1.0  0.43500  0.24900  0.35200  1.0000
  S   S8        1.0  0.94400  0.01270  0.40300  1.0000
  S   S9        1.0  0.44400  0.48700  0.59700  1.0000
  S   S10       1.0  0.93500  0.25100  0.64800  1.0000
  S   S11       1.0  0.89600  0.74700  0.65700  1.0000
  S   S12       1.0  0.39500  0.92200  0.72000  1.0000
  S   S13       1.0  0.60500  0.42200  0.78000  1.0000
  S   S14       1.0  0.10400  0.24700  0.84300  1.0000
  S   S15       1.0  0.06470  0.75100  0.85200  1.0000
  S   S16       1.0  0.55600  0.98700  0.90300  1.0000
  Si  Si1       1.0  0.79100  0.51800  0.16900  1.0000
  Si  Si2       1.0  0.20900  0.01800  0.33100  1.0000
  Si  Si3       1.0  0.70900  0.48200  0.66900  1.0000
  Si  Si4       1.0  0.29100  0.98200  0.83100  1.0000
