data_image0
_chemical_formula_structural       Eu4P4S12
_chemical_formula_sum              "Eu4 P4 S12"
_cell_length_a       9.25813
_cell_length_b       7.46839
_cell_length_c       6.53217
_cell_angle_alpha    90
_cell_angle_beta     91.5124
_cell_angle_gamma    90

_space_group_name_H-M_alt    "P 1"
_space_group_IT_number       1

loop_
  _space_group_symop_operation_xyz
  'x, y, z'

loop_
  _atom_site_type_symbol
  _atom_site_label
  _atom_site_symmetry_multiplicity
  _atom_site_fract_x
  _atom_site_fract_y
  _atom_site_fract_z
  _atom_site_occupancy
  Eu  Eu1       1.0  0.25100  0.38600  0.95600  1.0000
  Eu  Eu2       1.0  0.24900  0.88600  0.54400  1.0000
  Eu  Eu3       1.0  0.74900  0.61400  0.04360  1.0000
  Eu  Eu4       1.0  0.75100  0.11400  0.45600  1.0000
  P   P1        1.0  0.06650  0.39100  0.43500  1.0000
  P   P2        1.0  0.43300  0.89100  0.06490  1.0000
  P   P3        1.0  0.93300  0.60900  0.56500  1.0000
  P   P4        1.0  0.56700  0.10900  0.93500  1.0000
  S   S1        1.0  0.05720  0.19700  0.65300  1.0000
  S   S2        1.0  0.44300  0.69700  0.84700  1.0000
  S   S3        1.0  0.94300  0.80300  0.34700  1.0000
  S   S4        1.0  0.55700  0.30300  0.15300  1.0000
  S   S5        1.0  0.96100  0.30800  0.17500  1.0000
  S   S6        1.0  0.53900  0.80800  0.32500  1.0000
  S   S7        1.0  0.03860  0.69200  0.82500  1.0000
  S   S8        1.0  0.46100  0.19200  0.67500  1.0000
  S   S9        1.0  0.26400  0.49900  0.39600  1.0000
  S   S10       1.0  0.23600  0.99900  0.10400  1.0000
  S   S11       1.0  0.73600  0.50100  0.60400  1.0000
  S   S12       1.0  0.76400  0.00092  0.89600  1.0000
