data_image0
_chemical_formula_structural       Ce4In21Pd10
_chemical_formula_sum              "Ce4 In21 Pd10"
_cell_length_a       11.7733
_cell_length_b       11.7733
_cell_length_c       19.4745
_cell_angle_alpha    47.6336
_cell_angle_beta     132.366
_cell_angle_gamma    157.85

_space_group_name_H-M_alt    "P 1"
_space_group_IT_number       1

loop_
  _space_group_symop_operation_xyz
  'x, y, z'

loop_
  _atom_site_type_symbol
  _atom_site_label
  _atom_site_symmetry_multiplicity
  _atom_site_fract_x
  _atom_site_fract_y
  _atom_site_fract_z
  _atom_site_occupancy
  Ce  Ce1       1.0  0.71100  0.28900  0.83300  1.0000
  Ce  Ce2       1.0  0.28900  0.71100  0.16700  1.0000
  Ce  Ce3       1.0  0.90400  0.09610  0.67400  1.0000
  Ce  Ce4       1.0  0.09610  0.90400  0.32600  1.0000
  In  In1       1.0  0.54300  0.45700  0.79400  1.0000
  In  In2       1.0  0.45700  0.54300  0.20600  1.0000
  In  In3       1.0  0.41200  0.58800  0.79600  1.0000
  In  In4       1.0  0.58800  0.41200  0.20400  1.0000
  In  In5       1.0  0.10300  0.89700  0.50300  1.0000
  In  In6       1.0  0.89700  0.10300  0.49700  1.0000
  In  In7       1.0  0.76800  0.23200  0.70400  1.0000
  In  In8       1.0  0.23200  0.76800  0.29600  1.0000
  In  In9       1.0  0.06830  0.93200  0.69700  1.0000
  In  In10      1.0  0.93200  0.06830  0.30300  1.0000
  In  In11      1.0  0.50000  0.50000  1.00000  1.0000
  In  In12      1.0  0.06400  0.93600  0.94700  1.0000
  In  In13      1.0  0.93600  0.06400  0.05270  1.0000
  In  In14      1.0  0.32700  0.67300  0.86900  1.0000
  In  In15      1.0  0.67300  0.32700  0.13100  1.0000
  In  In16      1.0  0.58300  0.41700  0.59300  1.0000
  In  In17      1.0  0.41700  0.58300  0.40700  1.0000
  In  In18      1.0  0.69600  0.30400  0.49600  1.0000
  In  In19      1.0  0.30400  0.69600  0.50400  1.0000
  In  In20      1.0  0.69900  0.30100  0.99900  1.0000
  In  In21      1.0  0.30100  0.69900  0.00096  1.0000
  Pd  Pd1       1.0  0.18300  0.81700  0.68700  1.0000
  Pd  Pd2       1.0  0.81700  0.18300  0.31300  1.0000
  Pd  Pd3       1.0  0.47000  0.53000  0.60700  1.0000
  Pd  Pd4       1.0  0.53000  0.47000  0.39300  1.0000
  Pd  Pd5       1.0  0.26600  0.73400  0.61200  1.0000
  Pd  Pd6       1.0  0.73400  0.26600  0.38800  1.0000
  Pd  Pd7       1.0  0.91400  0.08580  0.89000  1.0000
  Pd  Pd8       1.0  0.08580  0.91400  0.11000  1.0000
  Pd  Pd9       1.0  0.13600  0.86400  0.88500  1.0000
  Pd  Pd10      1.0  0.86400  0.13600  0.11500  1.0000
