data_image0
_chemical_formula_structural       In21Pd10Pr4
_chemical_formula_sum              "In21 Pd10 Pr4"
_cell_length_a       11.7523
_cell_length_b       11.7523
_cell_length_c       19.4434
_cell_angle_alpha    47.6693
_cell_angle_beta     132.331
_cell_angle_gamma    157.896

_space_group_name_H-M_alt    "P 1"
_space_group_IT_number       1

loop_
  _space_group_symop_operation_xyz
  'x, y, z'

loop_
  _atom_site_type_symbol
  _atom_site_label
  _atom_site_symmetry_multiplicity
  _atom_site_fract_x
  _atom_site_fract_y
  _atom_site_fract_z
  _atom_site_occupancy
  In  In1       1.0  0.54300  0.45700  0.79400  1.0000
  In  In2       1.0  0.45700  0.54300  0.20600  1.0000
  In  In3       1.0  0.41200  0.58800  0.79600  1.0000
  In  In4       1.0  0.58800  0.41200  0.20400  1.0000
  In  In5       1.0  0.10300  0.89700  0.50300  1.0000
  In  In6       1.0  0.89700  0.10300  0.49700  1.0000
  In  In7       1.0  0.76800  0.23200  0.70400  1.0000
  In  In8       1.0  0.23200  0.76800  0.29600  1.0000
  In  In9       1.0  0.06850  0.93100  0.69800  1.0000
  In  In10      1.0  0.93100  0.06850  0.30200  1.0000
  In  In11      1.0  0.50000  0.50000  0.00000  1.0000
  In  In12      1.0  0.06420  0.93600  0.94700  1.0000
  In  In13      1.0  0.93600  0.06420  0.05270  1.0000
  In  In14      1.0  0.32600  0.67400  0.86900  1.0000
  In  In15      1.0  0.67400  0.32600  0.13100  1.0000
  In  In16      1.0  0.58400  0.41600  0.59300  1.0000
  In  In17      1.0  0.41600  0.58400  0.40700  1.0000
  In  In18      1.0  0.69600  0.30400  0.49600  1.0000
  In  In19      1.0  0.30400  0.69600  0.50400  1.0000
  In  In20      1.0  0.70000  0.30000  0.99900  1.0000
  In  In21      1.0  0.30000  0.70000  0.00075  1.0000
  Pd  Pd1       1.0  0.18300  0.81700  0.68800  1.0000
  Pd  Pd2       1.0  0.81700  0.18300  0.31200  1.0000
  Pd  Pd3       1.0  0.47000  0.53000  0.60700  1.0000
  Pd  Pd4       1.0  0.53000  0.47000  0.39300  1.0000
  Pd  Pd5       1.0  0.26600  0.73400  0.61300  1.0000
  Pd  Pd6       1.0  0.73400  0.26600  0.38700  1.0000
  Pd  Pd7       1.0  0.91400  0.08580  0.88900  1.0000
  Pd  Pd8       1.0  0.08580  0.91400  0.11100  1.0000
  Pd  Pd9       1.0  0.13600  0.86400  0.88400  1.0000
  Pd  Pd10      1.0  0.86400  0.13600  0.11600  1.0000
  Pr  Pr1       1.0  0.90400  0.09630  0.67400  1.0000
  Pr  Pr2       1.0  0.09630  0.90400  0.32600  1.0000
  Pr  Pr3       1.0  0.71100  0.28900  0.83300  1.0000
  Pr  Pr4       1.0  0.28900  0.71100  0.16700  1.0000
