data_image0
_chemical_formula_structural       Cu4La8S16
_chemical_formula_sum              "Cu4 La8 S16"
_cell_length_a       7.73623
_cell_length_b       7.53599
_cell_length_c       10.7846
_cell_angle_alpha    90
_cell_angle_beta     104.066
_cell_angle_gamma    90

_space_group_name_H-M_alt    "P 1"
_space_group_IT_number       1

loop_
  _space_group_symop_operation_xyz
  'x, y, z'

loop_
  _atom_site_type_symbol
  _atom_site_label
  _atom_site_symmetry_multiplicity
  _atom_site_fract_x
  _atom_site_fract_y
  _atom_site_fract_z
  _atom_site_occupancy
  Cu  Cu1       1.0  0.31900  0.11200  0.50600  1.0000
  Cu  Cu2       1.0  0.68100  0.61200  0.99400  1.0000
  Cu  Cu3       1.0  0.68100  0.88800  0.49400  1.0000
  Cu  Cu4       1.0  0.31900  0.38800  0.00637  1.0000
  La  La1       1.0  0.05990  0.79600  0.35800  1.0000
  La  La2       1.0  0.94000  0.29600  0.14200  1.0000
  La  La3       1.0  0.94000  0.20400  0.64200  1.0000
  La  La4       1.0  0.05990  0.70400  0.85800  1.0000
  La  La5       1.0  0.52700  0.37600  0.32500  1.0000
  La  La6       1.0  0.47300  0.87600  0.17500  1.0000
  La  La7       1.0  0.47300  0.62400  0.67500  1.0000
  La  La8       1.0  0.52700  0.12400  0.82500  1.0000
  S   S1        1.0  0.20400  0.57500  0.12800  1.0000
  S   S2        1.0  0.79600  0.07450  0.37200  1.0000
  S   S3        1.0  0.79600  0.42500  0.87200  1.0000
  S   S4        1.0  0.20400  0.92500  0.62800  1.0000
  S   S5        1.0  0.24800  0.10600  0.29200  1.0000
  S   S6        1.0  0.75200  0.60600  0.20800  1.0000
  S   S7        1.0  0.75200  0.89400  0.70800  1.0000
  S   S8        1.0  0.24800  0.39400  0.79200  1.0000
  S   S9        1.0  0.55400  0.21600  0.08610  1.0000
  S   S10       1.0  0.44600  0.71600  0.41400  1.0000
  S   S11       1.0  0.44600  0.78400  0.91400  1.0000
  S   S12       1.0  0.55400  0.28400  0.58600  1.0000
  S   S13       1.0  0.10700  0.44000  0.47100  1.0000
  S   S14       1.0  0.89300  0.94000  0.02880  1.0000
  S   S15       1.0  0.89300  0.56000  0.52900  1.0000
  S   S16       1.0  0.10700  0.06050  0.97100  1.0000
