data_image0
_chemical_formula_structural       H2Mg2O3
_chemical_formula_sum              "H2 Mg2 O3"
_cell_length_a       3.25101
_cell_length_b       3.49732
_cell_length_c       8.05664
_cell_angle_alpha    83.2513
_cell_angle_beta     114.37
_cell_angle_gamma    123.691

_space_group_name_H-M_alt    "P 1"
_space_group_IT_number       1

loop_
  _space_group_symop_operation_xyz
  'x, y, z'

loop_
  _atom_site_type_symbol
  _atom_site_label
  _atom_site_symmetry_multiplicity
  _atom_site_fract_x
  _atom_site_fract_y
  _atom_site_fract_z
  _atom_site_occupancy
  H   H1        1.0  0.62500  0.81300  0.44900  1.0000
  H   H2        1.0  0.44800  0.68600  0.83400  1.0000
  Mg  Mg1       1.0  0.37000  0.65900  0.18000  1.0000
  Mg  Mg2       1.0  0.42700  0.19700  0.59600  1.0000
  O   O1        1.0  0.74900  0.05400  0.02450  1.0000
  O   O2        1.0  0.13200  0.01780  0.21800  1.0000
  O   O3        1.0  0.24900  0.57300  0.69800  1.0000
