data_image0
_chemical_formula_structural       Nd8Sn12
_chemical_formula_sum              "Nd8 Sn12"
_cell_length_a       6.37776
_cell_length_b       8.35732
_cell_length_c       11.0986
_cell_angle_alpha    107.276
_cell_angle_beta     96.7087
_cell_angle_gamma    100.013

_space_group_name_H-M_alt    "P 1"
_space_group_IT_number       1

loop_
  _space_group_symop_operation_xyz
  'x, y, z'

loop_
  _atom_site_type_symbol
  _atom_site_label
  _atom_site_symmetry_multiplicity
  _atom_site_fract_x
  _atom_site_fract_y
  _atom_site_fract_z
  _atom_site_occupancy
  Nd  Nd1       1.0  0.55800  0.43100  0.33700  1.0000
  Nd  Nd2       1.0  0.88100  0.24200  0.61300  1.0000
  Nd  Nd3       1.0  0.11900  0.75800  0.38700  1.0000
  Nd  Nd4       1.0  0.44200  0.56900  0.66300  1.0000
  Nd  Nd5       1.0  0.33200  0.02870  0.74300  1.0000
  Nd  Nd6       1.0  0.66800  0.97100  0.25700  1.0000
  Nd  Nd7       1.0  0.95800  0.25200  0.05800  1.0000
  Nd  Nd8       1.0  0.04240  0.74800  0.94200  1.0000
  Sn  Sn1       1.0  0.43700  0.17300  0.04980  1.0000
  Sn  Sn2       1.0  0.56300  0.82700  0.95000  1.0000
  Sn  Sn3       1.0  0.32000  0.60500  0.14200  1.0000
  Sn  Sn4       1.0  0.68000  0.39500  0.85800  1.0000
  Sn  Sn5       1.0  0.36200  0.16600  0.50000  1.0000
  Sn  Sn6       1.0  0.63800  0.83400  0.50000  1.0000
  Sn  Sn7       1.0  0.17500  0.03460  0.22300  1.0000
  Sn  Sn8       1.0  0.82500  0.96500  0.77700  1.0000
  Sn  Sn9       1.0  0.22200  0.40300  0.86500  1.0000
  Sn  Sn10      1.0  0.77800  0.59700  0.13500  1.0000
  Sn  Sn11      1.0  0.04820  0.35600  0.37900  1.0000
  Sn  Sn12      1.0  0.95200  0.64400  0.62100  1.0000
