data_image0
_chemical_formula_structural       B8Eu4S16
_chemical_formula_sum              "B8 Eu4 S16"
_cell_length_a       6.36412
_cell_length_b       14.0699
_cell_length_c       6.08537
_cell_angle_alpha    90
_cell_angle_beta     110.634
_cell_angle_gamma    90

_space_group_name_H-M_alt    "P 1"
_space_group_IT_number       1

loop_
  _space_group_symop_operation_xyz
  'x, y, z'

loop_
  _atom_site_type_symbol
  _atom_site_label
  _atom_site_symmetry_multiplicity
  _atom_site_fract_x
  _atom_site_fract_y
  _atom_site_fract_z
  _atom_site_occupancy
  B   B1        1.0  0.26400  0.77300  0.82100  1.0000
  B   B2        1.0  0.73600  0.27300  0.67900  1.0000
  B   B3        1.0  0.26400  0.72700  0.32100  1.0000
  B   B4        1.0  0.73600  0.22700  0.17900  1.0000
  B   B5        1.0  0.53400  0.41600  0.92900  1.0000
  B   B6        1.0  0.46600  0.91600  0.57100  1.0000
  B   B7        1.0  0.46600  0.58400  0.07100  1.0000
  B   B8        1.0  0.53400  0.08360  0.42900  1.0000
  Eu  Eu1       1.0  0.19300  0.39600  0.29900  1.0000
  Eu  Eu2       1.0  0.80700  0.89600  0.20100  1.0000
  Eu  Eu3       1.0  0.80700  0.60400  0.70100  1.0000
  Eu  Eu4       1.0  0.19300  0.10400  0.79900  1.0000
  S   S1        1.0  0.26000  0.49300  0.85300  1.0000
  S   S2        1.0  0.74000  0.99300  0.64700  1.0000
  S   S3        1.0  0.74000  0.50700  0.14700  1.0000
  S   S4        1.0  0.26000  0.00720  0.35300  1.0000
  S   S5        1.0  0.92700  0.26200  0.49500  1.0000
  S   S6        1.0  0.07340  0.76200  0.00478  1.0000
  S   S7        1.0  0.07340  0.73800  0.50500  1.0000
  S   S8        1.0  0.92700  0.23800  0.99500  1.0000
  S   S9        1.0  0.63300  0.40200  0.66800  1.0000
  S   S10       1.0  0.36700  0.90200  0.83200  1.0000
  S   S11       1.0  0.36700  0.59800  0.33200  1.0000
  S   S12       1.0  0.63300  0.09790  0.16800  1.0000
  S   S13       1.0  0.47000  0.19700  0.55600  1.0000
  S   S14       1.0  0.53000  0.69700  0.94400  1.0000
  S   S15       1.0  0.53000  0.80300  0.44400  1.0000
  S   S16       1.0  0.47000  0.30300  0.05560  1.0000
