data_image0
_chemical_formula_structural       Er2H2O4
_chemical_formula_sum              "Er2 H2 O4"
_cell_length_a       5.96508
_cell_length_b       3.56115
_cell_length_c       4.26347
_cell_angle_alpha    90
_cell_angle_beta     112.228
_cell_angle_gamma    90

_space_group_name_H-M_alt    "P 1"
_space_group_IT_number       1

loop_
  _space_group_symop_operation_xyz
  'x, y, z'

loop_
  _atom_site_type_symbol
  _atom_site_label
  _atom_site_symmetry_multiplicity
  _atom_site_fract_x
  _atom_site_fract_y
  _atom_site_fract_z
  _atom_site_occupancy
  Er  Er1       1.0  0.19000  0.25000  0.35400  1.0000
  Er  Er2       1.0  0.81000  0.75000  0.64600  1.0000
  H   H1        1.0  0.59800  0.25000  0.10700  1.0000
  H   H2        1.0  0.40200  0.75000  0.89300  1.0000
  O   O1        1.0  0.94500  0.75000  0.21400  1.0000
  O   O2        1.0  0.56500  0.25000  0.31300  1.0000
  O   O3        1.0  0.43500  0.75000  0.68700  1.0000
  O   O4        1.0  0.05520  0.25000  0.78600  1.0000
