data_image0
_chemical_formula_structural       C8Cd2N12
_chemical_formula_sum              "C8 Cd2 N12"
_cell_length_a       5.24327
_cell_length_b       6.36722
_cell_length_c       7.65078
_cell_angle_alpha    90
_cell_angle_beta     98.4179
_cell_angle_gamma    90

_space_group_name_H-M_alt    "P 1"
_space_group_IT_number       1

loop_
  _space_group_symop_operation_xyz
  'x, y, z'

loop_
  _atom_site_type_symbol
  _atom_site_label
  _atom_site_symmetry_multiplicity
  _atom_site_fract_x
  _atom_site_fract_y
  _atom_site_fract_z
  _atom_site_occupancy
  C   C1        1.0  0.25200  0.31200  0.78700  1.0000
  C   C2        1.0  0.24800  0.81200  0.71300  1.0000
  C   C3        1.0  0.74800  0.68800  0.21300  1.0000
  C   C4        1.0  0.75200  0.18800  0.28700  1.0000
  C   C5        1.0  0.25600  0.41700  0.08610  1.0000
  C   C6        1.0  0.24400  0.91700  0.41400  1.0000
  C   C7        1.0  0.74400  0.58300  0.91400  1.0000
  C   C8        1.0  0.75600  0.08330  0.58600  1.0000
  Cd  Cd1       1.0  0.00000  0.00000  0.00000  1.0000
  Cd  Cd2       1.0  0.50000  0.50000  0.50000  1.0000
  N   N1        1.0  0.24400  0.29200  0.95300  1.0000
  N   N2        1.0  0.25600  0.79200  0.54700  1.0000
  N   N3        1.0  0.75600  0.70800  0.04740  1.0000
  N   N4        1.0  0.74400  0.20800  0.45300  1.0000
  N   N5        1.0  0.24800  0.29100  0.63300  1.0000
  N   N6        1.0  0.25200  0.79100  0.86700  1.0000
  N   N7        1.0  0.75200  0.70900  0.36700  1.0000
  N   N8        1.0  0.74800  0.20900  0.13300  1.0000
  N   N9        1.0  0.25300  0.50000  0.22300  1.0000
  N   N10       1.0  0.24700  0.00004  0.27700  1.0000
  N   N11       1.0  0.74700  0.50000  0.77700  1.0000
  N   N12       1.0  0.75300  0.00000  0.72300  1.0000
