data_image0
_chemical_formula_structural       I8Li20S12Sb4
_chemical_formula_sum              "I8 Li20 S12 Sb4"
_cell_length_a       10.3559
_cell_length_b       13.3803
_cell_length_c       7.52618
_cell_angle_alpha    90
_cell_angle_beta     90
_cell_angle_gamma    90

_space_group_name_H-M_alt    "P 1"
_space_group_IT_number       1

loop_
  _space_group_symop_operation_xyz
  'x, y, z'

loop_
  _atom_site_type_symbol
  _atom_site_label
  _atom_site_symmetry_multiplicity
  _atom_site_fract_x
  _atom_site_fract_y
  _atom_site_fract_z
  _atom_site_occupancy
  I   I1        1.0  0.57300  0.26200  0.00000  1.0000
  I   I2        1.0  0.42700  0.73800  0.00000  1.0000
  I   I3        1.0  0.07290  0.23800  0.50000  1.0000
  I   I4        1.0  0.92700  0.76200  0.50000  1.0000
  I   I5        1.0  0.05620  0.64100  0.00000  1.0000
  I   I6        1.0  0.94400  0.35900  0.00000  1.0000
  I   I7        1.0  0.55600  0.85900  0.50000  1.0000
  I   I8        1.0  0.44400  0.14100  0.50000  1.0000
  Li  Li1       1.0  0.06030  0.09840  0.22800  1.0000
  Li  Li2       1.0  0.94000  0.90200  0.22800  1.0000
  Li  Li3       1.0  0.56000  0.40200  0.27200  1.0000
  Li  Li4       1.0  0.44000  0.59800  0.27200  1.0000
  Li  Li5       1.0  0.94000  0.90200  0.77200  1.0000
  Li  Li6       1.0  0.06030  0.09840  0.77200  1.0000
  Li  Li7       1.0  0.44000  0.59800  0.72800  1.0000
  Li  Li8       1.0  0.56000  0.40200  0.72800  1.0000
  Li  Li9       1.0  0.18600  0.46000  0.00000  1.0000
  Li  Li10      1.0  0.81400  0.54000  0.00000  1.0000
  Li  Li11      1.0  0.68600  0.04050  0.50000  1.0000
  Li  Li12      1.0  0.31400  0.96000  0.50000  1.0000
  Li  Li13      1.0  0.29800  0.25400  0.25400  1.0000
  Li  Li14      1.0  0.70200  0.74600  0.25400  1.0000
  Li  Li15      1.0  0.79800  0.24600  0.24600  1.0000
  Li  Li16      1.0  0.20200  0.75400  0.24600  1.0000
  Li  Li17      1.0  0.70200  0.74600  0.74600  1.0000
  Li  Li18      1.0  0.29800  0.25400  0.74600  1.0000
  Li  Li19      1.0  0.20200  0.75400  0.75400  1.0000
  Li  Li20      1.0  0.79800  0.24600  0.75400  1.0000
  S   S1        1.0  0.32700  0.43500  0.25100  1.0000
  S   S2        1.0  0.67300  0.56500  0.25100  1.0000
  S   S3        1.0  0.82700  0.06500  0.24900  1.0000
  S   S4        1.0  0.17300  0.93500  0.24900  1.0000
  S   S5        1.0  0.67300  0.56500  0.74900  1.0000
  S   S6        1.0  0.32700  0.43500  0.74900  1.0000
  S   S7        1.0  0.17300  0.93500  0.75100  1.0000
  S   S8        1.0  0.82700  0.06500  0.75100  1.0000
  S   S9        1.0  0.20200  0.16500  0.00000  1.0000
  S   S10       1.0  0.79800  0.83500  0.00000  1.0000
  S   S11       1.0  0.70200  0.33500  0.50000  1.0000
  S   S12       1.0  0.29800  0.66500  0.50000  1.0000
  Sb  Sb1       1.0  0.30600  0.99800  0.00000  1.0000
  Sb  Sb2       1.0  0.69400  0.00219  0.00000  1.0000
  Sb  Sb3       1.0  0.80600  0.50200  0.50000  1.0000
  Sb  Sb4       1.0  0.19400  0.49800  0.50000  1.0000
