data_image0
_chemical_formula_structural       Cl36Pt12
_chemical_formula_sum              "Cl36 Pt12"
_cell_length_a       12.4534
_cell_length_b       12.4534
_cell_length_c       12.4534
_cell_angle_alpha    114.877
_cell_angle_beta     114.877
_cell_angle_gamma    114.877

_space_group_name_H-M_alt    "P 1"
_space_group_IT_number       1

loop_
  _space_group_symop_operation_xyz
  'x, y, z'

loop_
  _atom_site_type_symbol
  _atom_site_label
  _atom_site_symmetry_multiplicity
  _atom_site_fract_x
  _atom_site_fract_y
  _atom_site_fract_z
  _atom_site_occupancy
  Cl  Cl1       1.0  0.09950  0.07910  0.81900  1.0000
  Cl  Cl2       1.0  0.81900  0.09950  0.07910  1.0000
  Cl  Cl3       1.0  0.07910  0.81900  0.09950  1.0000
  Cl  Cl4       1.0  0.90100  0.92100  0.18100  1.0000
  Cl  Cl5       1.0  0.18100  0.90100  0.92100  1.0000
  Cl  Cl6       1.0  0.92100  0.18100  0.90100  1.0000
  Cl  Cl7       1.0  0.72000  0.05130  0.29500  1.0000
  Cl  Cl8       1.0  0.29500  0.72000  0.05130  1.0000
  Cl  Cl9       1.0  0.05130  0.29500  0.72000  1.0000
  Cl  Cl10      1.0  0.28000  0.94900  0.70500  1.0000
  Cl  Cl11      1.0  0.70500  0.28000  0.94900  1.0000
  Cl  Cl12      1.0  0.94900  0.70500  0.28000  1.0000
  Cl  Cl13      1.0  0.78600  0.84500  0.37200  1.0000
  Cl  Cl14      1.0  0.37200  0.78600  0.84500  1.0000
  Cl  Cl15      1.0  0.84500  0.37200  0.78600  1.0000
  Cl  Cl16      1.0  0.21400  0.15500  0.62800  1.0000
  Cl  Cl17      1.0  0.62800  0.21400  0.15500  1.0000
  Cl  Cl18      1.0  0.15500  0.62800  0.21400  1.0000
  Cl  Cl19      1.0  0.38400  0.54300  0.16000  1.0000
  Cl  Cl20      1.0  0.16000  0.38400  0.54300  1.0000
  Cl  Cl21      1.0  0.54300  0.16000  0.38400  1.0000
  Cl  Cl22      1.0  0.61600  0.45700  0.84000  1.0000
  Cl  Cl23      1.0  0.84000  0.61600  0.45700  1.0000
  Cl  Cl24      1.0  0.45700  0.84000  0.61600  1.0000
  Cl  Cl25      1.0  0.40800  0.30700  0.22700  1.0000
  Cl  Cl26      1.0  0.22700  0.40800  0.30700  1.0000
  Cl  Cl27      1.0  0.30700  0.22700  0.40800  1.0000
  Cl  Cl28      1.0  0.59200  0.69300  0.77300  1.0000
  Cl  Cl29      1.0  0.77300  0.59200  0.69300  1.0000
  Cl  Cl30      1.0  0.69300  0.77300  0.59200  1.0000
  Cl  Cl31      1.0  0.47000  0.62000  0.96600  1.0000
  Cl  Cl32      1.0  0.96600  0.47000  0.62000  1.0000
  Cl  Cl33      1.0  0.62000  0.96600  0.47000  1.0000
  Cl  Cl34      1.0  0.53000  0.38000  0.03360  1.0000
  Cl  Cl35      1.0  0.03360  0.53000  0.38000  1.0000
  Cl  Cl36      1.0  0.38000  0.03360  0.53000  1.0000
  Pt  Pt1       1.0  0.16800  0.25000  0.06540  1.0000
  Pt  Pt2       1.0  0.06540  0.16800  0.25000  1.0000
  Pt  Pt3       1.0  0.25000  0.06540  0.16800  1.0000
  Pt  Pt4       1.0  0.83200  0.75000  0.93500  1.0000
  Pt  Pt5       1.0  0.93500  0.83200  0.75000  1.0000
  Pt  Pt6       1.0  0.75000  0.93500  0.83200  1.0000
  Pt  Pt7       1.0  0.54700  0.78800  0.22000  1.0000
  Pt  Pt8       1.0  0.22000  0.54700  0.78800  1.0000
  Pt  Pt9       1.0  0.78800  0.22000  0.54700  1.0000
  Pt  Pt10      1.0  0.45300  0.21200  0.78000  1.0000
  Pt  Pt11      1.0  0.78000  0.45300  0.21200  1.0000
  Pt  Pt12      1.0  0.21200  0.78000  0.45300  1.0000
