data_image0
_chemical_formula_structural       Eu6Ga8Ge12
_chemical_formula_sum              "Eu6 Ga8 Ge12"
_cell_length_a       12.116
_cell_length_b       12.116
_cell_length_c       10.7965
_cell_angle_alpha    88.1778
_cell_angle_beta     91.8222
_cell_angle_gamma    159.594

_space_group_name_H-M_alt    "P 1"
_space_group_IT_number       1

loop_
  _space_group_symop_operation_xyz
  'x, y, z'

loop_
  _atom_site_type_symbol
  _atom_site_label
  _atom_site_symmetry_multiplicity
  _atom_site_fract_x
  _atom_site_fract_y
  _atom_site_fract_z
  _atom_site_occupancy
  Eu  Eu1       1.0  0.17200  0.82800  0.54600  1.0000
  Eu  Eu2       1.0  0.82800  0.17200  0.45400  1.0000
  Eu  Eu3       1.0  0.64500  0.35500  0.10200  1.0000
  Eu  Eu4       1.0  0.35500  0.64500  0.89800  1.0000
  Eu  Eu5       1.0  0.47700  0.52300  0.16800  1.0000
  Eu  Eu6       1.0  0.52300  0.47700  0.83200  1.0000
  Ga  Ga1       1.0  0.86400  0.13600  0.12000  1.0000
  Ga  Ga2       1.0  0.13600  0.86400  0.88000  1.0000
  Ga  Ga3       1.0  0.06650  0.93300  0.27100  1.0000
  Ga  Ga4       1.0  0.93300  0.06650  0.72900  1.0000
  Ga  Ga5       1.0  0.24100  0.75900  0.26100  1.0000
  Ga  Ga6       1.0  0.75900  0.24100  0.73900  1.0000
  Ga  Ga7       1.0  0.42400  0.57600  0.41600  1.0000
  Ga  Ga8       1.0  0.57600  0.42400  0.58400  1.0000
  Ge  Ge1       1.0  0.28900  0.71100  0.63600  1.0000
  Ge  Ge2       1.0  0.71100  0.28900  0.36400  1.0000
  Ge  Ge3       1.0  0.22500  0.77500  0.02660  1.0000
  Ge  Ge4       1.0  0.77500  0.22500  0.97300  1.0000
  Ge  Ge5       1.0  0.02320  0.97700  0.60500  1.0000
  Ge  Ge6       1.0  0.97700  0.02320  0.39500  1.0000
  Ge  Ge7       1.0  0.05210  0.94800  0.03420  1.0000
  Ge  Ge8       1.0  0.94800  0.05210  0.96600  1.0000
  Ge  Ge9       1.0  0.60600  0.39400  0.36400  1.0000
  Ge  Ge10      1.0  0.39400  0.60600  0.63600  1.0000
  Ge  Ge11      1.0  0.34800  0.65200  0.23800  1.0000
  Ge  Ge12      1.0  0.65200  0.34800  0.76200  1.0000
