data_image0
_chemical_formula_structural       As2Cs6Nb4Se22
_chemical_formula_sum              "As2 Cs6 Nb4 Se22"
_cell_length_a       10.4365
_cell_length_b       10.4365
_cell_length_c       10.334
_cell_angle_alpha    84.4837
_cell_angle_beta     95.5163
_cell_angle_gamma    95.3581

_space_group_name_H-M_alt    "P 1"
_space_group_IT_number       1

loop_
  _space_group_symop_operation_xyz
  'x, y, z'

loop_
  _atom_site_type_symbol
  _atom_site_label
  _atom_site_symmetry_multiplicity
  _atom_site_fract_x
  _atom_site_fract_y
  _atom_site_fract_z
  _atom_site_occupancy
  As  As1       1.0  0.41100  0.25200  0.22300  1.0000
  As  As2       1.0  0.74800  0.58900  0.72300  1.0000
  Cs  Cs1       1.0  0.04380  0.81600  0.39800  1.0000
  Cs  Cs2       1.0  0.18400  0.95600  0.89800  1.0000
  Cs  Cs3       1.0  0.28700  0.55700  0.06790  1.0000
  Cs  Cs4       1.0  0.44300  0.71300  0.56800  1.0000
  Cs  Cs5       1.0  0.80000  0.35700  0.15600  1.0000
  Cs  Cs6       1.0  0.64300  0.20000  0.65600  1.0000
  Nb  Nb1       1.0  0.08020  0.45700  0.67000  1.0000
  Nb  Nb2       1.0  0.54300  0.92000  0.17000  1.0000
  Nb  Nb3       1.0  0.19300  0.20700  0.48300  1.0000
  Nb  Nb4       1.0  0.79300  0.80700  0.98300  1.0000
  Se  Se1       1.0  0.83300  0.81100  0.73200  1.0000
  Se  Se2       1.0  0.18900  0.16700  0.23200  1.0000
  Se  Se3       1.0  0.89400  0.48700  0.48500  1.0000
  Se  Se4       1.0  0.51300  0.10600  0.98500  1.0000
  Se  Se5       1.0  0.56600  0.10900  0.32800  1.0000
  Se  Se6       1.0  0.89100  0.43400  0.82800  1.0000
  Se  Se7       1.0  0.81600  0.98700  0.14500  1.0000
  Se  Se8       1.0  0.01270  0.18400  0.64500  1.0000
  Se  Se9       1.0  0.65100  0.69400  0.18200  1.0000
  Se  Se10      1.0  0.30600  0.34900  0.68200  1.0000
  Se  Se11      1.0  0.10800  0.46800  0.41700  1.0000
  Se  Se12      1.0  0.53200  0.89200  0.91700  1.0000
  Se  Se13      1.0  0.61700  0.61100  0.90800  1.0000
  Se  Se14      1.0  0.38900  0.38300  0.40800  1.0000
  Se  Se15      1.0  0.69400  0.82200  0.36600  1.0000
  Se  Se16      1.0  0.17800  0.30600  0.86600  1.0000
  Se  Se17      1.0  0.95000  0.13400  0.42600  1.0000
  Se  Se18      1.0  0.86600  0.05040  0.92600  1.0000
  Se  Se19      1.0  0.15900  0.66700  0.72700  1.0000
  Se  Se20      1.0  0.33300  0.84100  0.22700  1.0000
  Se  Se21      1.0  0.97400  0.69200  0.06340  1.0000
  Se  Se22      1.0  0.30800  0.02620  0.56300  1.0000
