data_image0
_chemical_formula_structural       H48Li4N16Rb4Se12
_chemical_formula_sum              "H48 Li4 N16 Rb4 Se12"
_cell_length_a       9.81165
_cell_length_b       9.81165
_cell_length_c       19.5216
_cell_angle_alpha    69.0652
_cell_angle_beta     110.935
_cell_angle_gamma    145.416

_space_group_name_H-M_alt    "P 1"
_space_group_IT_number       1

loop_
  _space_group_symop_operation_xyz
  'x, y, z'

loop_
  _atom_site_type_symbol
  _atom_site_label
  _atom_site_symmetry_multiplicity
  _atom_site_fract_x
  _atom_site_fract_y
  _atom_site_fract_z
  _atom_site_occupancy
  H   H1        1.0  0.86600  0.83000  0.16700  1.0000
  H   H2        1.0  0.83000  0.86600  0.33300  1.0000
  H   H3        1.0  0.13400  0.17000  0.83300  1.0000
  H   H4        1.0  0.17000  0.13400  0.66700  1.0000
  H   H5        1.0  0.99300  0.06680  0.19000  1.0000
  H   H6        1.0  0.06680  0.99300  0.31000  1.0000
  H   H7        1.0  0.00688  0.93300  0.81000  1.0000
  H   H8        1.0  0.93300  0.00688  0.69000  1.0000
  H   H9        1.0  0.64600  0.07570  0.57500  1.0000
  H   H10       1.0  0.07570  0.64600  0.92500  1.0000
  H   H11       1.0  0.35400  0.92400  0.42500  1.0000
  H   H12       1.0  0.92400  0.35400  0.07500  1.0000
  H   H13       1.0  0.75300  0.24400  0.49500  1.0000
  H   H14       1.0  0.24400  0.75300  0.00481  1.0000
  H   H15       1.0  0.24700  0.75600  0.50500  1.0000
  H   H16       1.0  0.75600  0.24700  0.99500  1.0000
  H   H17       1.0  0.34700  0.59600  0.06640  1.0000
  H   H18       1.0  0.59600  0.34700  0.43400  1.0000
  H   H19       1.0  0.65300  0.40400  0.93400  1.0000
  H   H20       1.0  0.40400  0.65300  0.56600  1.0000
  H   H21       1.0  0.91900  0.37100  0.57300  1.0000
  H   H22       1.0  0.37100  0.91900  0.92700  1.0000
  H   H23       1.0  0.08060  0.62900  0.42700  1.0000
  H   H24       1.0  0.62900  0.08060  0.07290  1.0000
  H   H25       1.0  0.01880  0.19900  0.42200  1.0000
  H   H26       1.0  0.19900  0.01880  0.07760  1.0000
  H   H27       1.0  0.98100  0.80100  0.57800  1.0000
  H   H28       1.0  0.80100  0.98100  0.92200  1.0000
  H   H29       1.0  0.14600  0.11000  0.14800  1.0000
  H   H30       1.0  0.11000  0.14600  0.35200  1.0000
  H   H31       1.0  0.85400  0.89000  0.85200  1.0000
  H   H32       1.0  0.89000  0.85400  0.64800  1.0000
  H   H33       1.0  0.83800  0.91900  0.45800  1.0000
  H   H34       1.0  0.91900  0.83800  0.04200  1.0000
  H   H35       1.0  0.16200  0.08140  0.54200  1.0000
  H   H36       1.0  0.08140  0.16200  0.95800  1.0000
  H   H37       1.0  0.45500  0.52900  0.06560  1.0000
  H   H38       1.0  0.52900  0.45500  0.43400  1.0000
  H   H39       1.0  0.54500  0.47100  0.93400  1.0000
  H   H40       1.0  0.47100  0.54500  0.56600  1.0000
  H   H41       1.0  0.73400  0.00167  0.42400  1.0000
  H   H42       1.0  0.00167  0.73400  0.07610  1.0000
  H   H43       1.0  0.26600  0.99800  0.57600  1.0000
  H   H44       1.0  0.99800  0.26600  0.92400  1.0000
  H   H45       1.0  0.36900  0.59500  0.98700  1.0000
  H   H46       1.0  0.59500  0.36900  0.51300  1.0000
  H   H47       1.0  0.63100  0.40500  0.01280  1.0000
  H   H48       1.0  0.40500  0.63100  0.48700  1.0000
  Li  Li1       1.0  0.99300  0.19600  0.54900  1.0000
  Li  Li2       1.0  0.19600  0.99300  0.95100  1.0000
  Li  Li3       1.0  0.00697  0.80400  0.45100  1.0000
  Li  Li4       1.0  0.80400  0.00697  0.04940  1.0000
  N   N1        1.0  0.80200  0.21700  0.54900  1.0000
  N   N2        1.0  0.21700  0.80200  0.95100  1.0000
  N   N3        1.0  0.19800  0.78300  0.45100  1.0000
  N   N4        1.0  0.78300  0.19800  0.04930  1.0000
  N   N5        1.0  0.88100  0.05710  0.45600  1.0000
  N   N6        1.0  0.05710  0.88100  0.04430  1.0000
  N   N7        1.0  0.11900  0.94300  0.54400  1.0000
  N   N8        1.0  0.94300  0.11900  0.95600  1.0000
  N   N9        1.0  0.97500  0.00757  0.15000  1.0000
  N   N10       1.0  0.00757  0.97500  0.35000  1.0000
  N   N11       1.0  0.02520  0.99200  0.85000  1.0000
  N   N12       1.0  0.99200  0.02520  0.65000  1.0000
  N   N13       1.0  0.45700  0.64300  0.03950  1.0000
  N   N14       1.0  0.64300  0.45700  0.46000  1.0000
  N   N15       1.0  0.54300  0.35700  0.96000  1.0000
  N   N16       1.0  0.35700  0.54300  0.54000  1.0000
  Rb  Rb1       1.0  0.17200  0.80000  0.26300  1.0000
  Rb  Rb2       1.0  0.80000  0.17200  0.23700  1.0000
  Rb  Rb3       1.0  0.82800  0.20000  0.73700  1.0000
  Rb  Rb4       1.0  0.20000  0.82800  0.76300  1.0000
  Se  Se1       1.0  0.57900  0.39100  0.27200  1.0000
  Se  Se2       1.0  0.39100  0.57900  0.22800  1.0000
  Se  Se3       1.0  0.42100  0.60900  0.72800  1.0000
  Se  Se4       1.0  0.60900  0.42100  0.77200  1.0000
  Se  Se5       1.0  0.71300  0.26700  0.35900  1.0000
  Se  Se6       1.0  0.26700  0.71300  0.14100  1.0000
  Se  Se7       1.0  0.28700  0.73300  0.64100  1.0000
  Se  Se8       1.0  0.73300  0.28700  0.85900  1.0000
  Se  Se9       1.0  0.57800  0.36400  0.15600  1.0000
  Se  Se10      1.0  0.36400  0.57800  0.34400  1.0000
  Se  Se11      1.0  0.42200  0.63600  0.84400  1.0000
  Se  Se12      1.0  0.63600  0.42200  0.65600  1.0000
