data_image0
_chemical_formula_structural       I6MoO18Rb2
_chemical_formula_sum              "I6 Mo1 O18 Rb2"
_cell_length_a       7.31485
_cell_length_b       7.31442
_cell_length_c       7.31427
_cell_angle_alpha    98.124
_cell_angle_beta     98.1279
_cell_angle_gamma    98.1242

_space_group_name_H-M_alt    "P 1"
_space_group_IT_number       1

loop_
  _space_group_symop_operation_xyz
  'x, y, z'

loop_
  _atom_site_type_symbol
  _atom_site_label
  _atom_site_symmetry_multiplicity
  _atom_site_fract_x
  _atom_site_fract_y
  _atom_site_fract_z
  _atom_site_occupancy
  I   I1        1.0  0.10900  0.35000  0.70900  1.0000
  I   I2        1.0  0.70900  0.10900  0.35000  1.0000
  I   I3        1.0  0.35000  0.70900  0.10900  1.0000
  I   I4        1.0  0.89100  0.65000  0.29100  1.0000
  I   I5        1.0  0.29100  0.89100  0.65000  1.0000
  I   I6        1.0  0.65000  0.29100  0.89100  1.0000
  Mo  Mo1       1.0  0.50000  0.50000  0.50000  1.0000
  O   O1        1.0  0.29900  0.39900  0.91700  1.0000
  O   O2        1.0  0.91700  0.29900  0.40000  1.0000
  O   O3        1.0  0.40000  0.91700  0.29900  1.0000
  O   O4        1.0  0.70100  0.60100  0.08290  1.0000
  O   O5        1.0  0.08290  0.70100  0.60100  1.0000
  O   O6        1.0  0.60000  0.08280  0.70100  1.0000
  O   O7        1.0  0.05110  0.09660  0.68800  1.0000
  O   O8        1.0  0.68800  0.05100  0.09670  1.0000
  O   O9        1.0  0.09680  0.68800  0.05100  1.0000
  O   O10       1.0  0.94900  0.90300  0.31200  1.0000
  O   O11       1.0  0.31200  0.94900  0.90300  1.0000
  O   O12       1.0  0.90300  0.31200  0.94900  1.0000
  O   O13       1.0  0.29700  0.31400  0.55500  1.0000
  O   O14       1.0  0.55500  0.29700  0.31400  1.0000
  O   O15       1.0  0.31400  0.55600  0.29700  1.0000
  O   O16       1.0  0.70300  0.68600  0.44500  1.0000
  O   O17       1.0  0.44500  0.70300  0.68600  1.0000
  O   O18       1.0  0.68600  0.44400  0.70300  1.0000
  Rb  Rb1       1.0  0.83500  0.83500  0.83500  1.0000
  Rb  Rb2       1.0  0.16500  0.16500  0.16500  1.0000
