data_image0
_chemical_formula_structural       Cs2I6O18Zr
_chemical_formula_sum              "Cs2 I6 O18 Zr1"
_cell_length_a       7.52053
_cell_length_b       7.5196
_cell_length_c       7.52097
_cell_angle_alpha    97.8479
_cell_angle_beta     97.8551
_cell_angle_gamma    97.8522

_space_group_name_H-M_alt    "P 1"
_space_group_IT_number       1

loop_
  _space_group_symop_operation_xyz
  'x, y, z'

loop_
  _atom_site_type_symbol
  _atom_site_label
  _atom_site_symmetry_multiplicity
  _atom_site_fract_x
  _atom_site_fract_y
  _atom_site_fract_z
  _atom_site_occupancy
  Cs  Cs1       1.0  0.84100  0.84100  0.84100  1.0000
  Cs  Cs2       1.0  0.15900  0.15900  0.15900  1.0000
  I   I1        1.0  0.09900  0.35400  0.70400  1.0000
  I   I2        1.0  0.70400  0.09890  0.35400  1.0000
  I   I3        1.0  0.35400  0.70400  0.09890  1.0000
  I   I4        1.0  0.90100  0.64600  0.29600  1.0000
  I   I5        1.0  0.29600  0.90100  0.64600  1.0000
  I   I6        1.0  0.64600  0.29600  0.90100  1.0000
  O   O1        1.0  0.29000  0.40900  0.89700  1.0000
  O   O2        1.0  0.89700  0.29000  0.40900  1.0000
  O   O3        1.0  0.40900  0.89700  0.29000  1.0000
  O   O4        1.0  0.71000  0.59100  0.10300  1.0000
  O   O5        1.0  0.10300  0.71000  0.59100  1.0000
  O   O6        1.0  0.59100  0.10300  0.71000  1.0000
  O   O7        1.0  0.26000  0.35000  0.53800  1.0000
  O   O8        1.0  0.53800  0.26000  0.35000  1.0000
  O   O9        1.0  0.35000  0.53800  0.26000  1.0000
  O   O10       1.0  0.74000  0.65000  0.46200  1.0000
  O   O11       1.0  0.46200  0.74000  0.65000  1.0000
  O   O12       1.0  0.65000  0.46200  0.74000  1.0000
  O   O13       1.0  0.06210  0.10800  0.68900  1.0000
  O   O14       1.0  0.68900  0.06210  0.10900  1.0000
  O   O15       1.0  0.10800  0.68900  0.06200  1.0000
  O   O16       1.0  0.93800  0.89200  0.31100  1.0000
  O   O17       1.0  0.31100  0.93800  0.89200  1.0000
  O   O18       1.0  0.89200  0.31100  0.93800  1.0000
  Zr  Zr1       1.0  0.50000  0.50000  0.50000  1.0000
