data_image0
_chemical_formula_structural       I6O18Rb2Zr
_chemical_formula_sum              "I6 O18 Rb2 Zr1"
_cell_length_a       7.3832
_cell_length_b       7.38545
_cell_length_c       7.38189
_cell_angle_alpha    97.9057
_cell_angle_beta     97.9018
_cell_angle_gamma    97.9039

_space_group_name_H-M_alt    "P 1"
_space_group_IT_number       1

loop_
  _space_group_symop_operation_xyz
  'x, y, z'

loop_
  _atom_site_type_symbol
  _atom_site_label
  _atom_site_symmetry_multiplicity
  _atom_site_fract_x
  _atom_site_fract_y
  _atom_site_fract_z
  _atom_site_occupancy
  I   I1        1.0  0.09670  0.70500  0.35000  1.0000
  I   I2        1.0  0.34900  0.09660  0.70500  1.0000
  I   I3        1.0  0.70500  0.34900  0.09570  1.0000
  I   I4        1.0  0.90500  0.29500  0.65000  1.0000
  I   I5        1.0  0.65100  0.90400  0.29500  1.0000
  I   I6        1.0  0.29500  0.65100  0.90400  1.0000
  O   O1        1.0  0.29200  0.90200  0.40100  1.0000
  O   O2        1.0  0.40100  0.29200  0.90200  1.0000
  O   O3        1.0  0.90200  0.40100  0.29200  1.0000
  O   O4        1.0  0.70800  0.09800  0.59900  1.0000
  O   O5        1.0  0.59800  0.70800  0.09840  1.0000
  O   O6        1.0  0.09800  0.59900  0.70800  1.0000
  O   O7        1.0  0.04630  0.69000  0.09890  1.0000
  O   O8        1.0  0.09850  0.04630  0.68900  1.0000
  O   O9        1.0  0.68900  0.09890  0.04590  1.0000
  O   O10       1.0  0.95400  0.31100  0.90100  1.0000
  O   O11       1.0  0.90100  0.95400  0.31100  1.0000
  O   O12       1.0  0.31000  0.90100  0.95300  1.0000
  O   O13       1.0  0.26700  0.54200  0.32900  1.0000
  O   O14       1.0  0.32900  0.26700  0.54100  1.0000
  O   O15       1.0  0.54200  0.33000  0.26700  1.0000
  O   O16       1.0  0.73300  0.45800  0.67000  1.0000
  O   O17       1.0  0.67000  0.73300  0.45900  1.0000
  O   O18       1.0  0.45800  0.67000  0.73300  1.0000
  Rb  Rb1       1.0  0.83800  0.83800  0.83800  1.0000
  Rb  Rb2       1.0  0.16200  0.16200  0.16200  1.0000
  Zr  Zr1       1.0  0.50000  0.50000  0.50000  1.0000
