data_image0
_chemical_formula_structural       B40H40K8
_chemical_formula_sum              "B40 H40 K8"
_cell_length_a       12.4684
_cell_length_b       10.7839
_cell_length_c       6.6148
_cell_angle_alpha    90
_cell_angle_beta     91.9132
_cell_angle_gamma    90

_space_group_name_H-M_alt    "P 1"
_space_group_IT_number       1

loop_
  _space_group_symop_operation_xyz
  'x, y, z'

loop_
  _atom_site_type_symbol
  _atom_site_label
  _atom_site_symmetry_multiplicity
  _atom_site_fract_x
  _atom_site_fract_y
  _atom_site_fract_z
  _atom_site_occupancy
  B   B1        1.0  0.63400  0.32300  0.63500  1.0000
  B   B2        1.0  0.86600  0.82300  0.86500  1.0000
  B   B3        1.0  0.36600  0.67700  0.36500  1.0000
  B   B4        1.0  0.13400  0.17700  0.13500  1.0000
  B   B5        1.0  0.72700  0.28700  0.84200  1.0000
  B   B6        1.0  0.77300  0.78700  0.65800  1.0000
  B   B7        1.0  0.27300  0.71300  0.15800  1.0000
  B   B8        1.0  0.22700  0.21300  0.34200  1.0000
  B   B9        1.0  0.59800  0.09880  0.84000  1.0000
  B   B10       1.0  0.90200  0.59900  0.66000  1.0000
  B   B11       1.0  0.40200  0.90100  0.16000  1.0000
  B   B12       1.0  0.09790  0.40100  0.34000  1.0000
  B   B13       1.0  0.60200  0.35900  0.89700  1.0000
  B   B14       1.0  0.89800  0.85900  0.60300  1.0000
  B   B15       1.0  0.39800  0.64100  0.10300  1.0000
  B   B16       1.0  0.10200  0.14100  0.39700  1.0000
  B   B17       1.0  0.51000  0.22500  0.89600  1.0000
  B   B18       1.0  0.99000  0.72500  0.60400  1.0000
  B   B19       1.0  0.49000  0.77500  0.10400  1.0000
  B   B20       1.0  0.01010  0.27500  0.39600  1.0000
  B   B21       1.0  0.50500  0.33600  0.71400  1.0000
  B   B22       1.0  0.99500  0.83600  0.78600  1.0000
  B   B23       1.0  0.49500  0.66400  0.28600  1.0000
  B   B24       1.0  0.00526  0.16400  0.21400  1.0000
  B   B25       1.0  0.68700  0.16900  0.65800  1.0000
  B   B26       1.0  0.81300  0.66900  0.84200  1.0000
  B   B27       1.0  0.31300  0.83100  0.34200  1.0000
  B   B28       1.0  0.18700  0.33100  0.15800  1.0000
  B   B29       1.0  0.54300  0.19200  0.63600  1.0000
  B   B30       1.0  0.95700  0.69200  0.86400  1.0000
  B   B31       1.0  0.45700  0.80800  0.36400  1.0000
  B   B32       1.0  0.04310  0.30800  0.13600  1.0000
  B   B33       1.0  0.72700  0.13400  0.89800  1.0000
  B   B34       1.0  0.77300  0.63400  0.60200  1.0000
  B   B35       1.0  0.27300  0.86600  0.10200  1.0000
  B   B36       1.0  0.22700  0.36600  0.39800  1.0000
  B   B37       1.0  0.63900  0.21800  0.02660  1.0000
  B   B38       1.0  0.86100  0.71800  0.47300  1.0000
  B   B39       1.0  0.36100  0.78200  0.97300  1.0000
  B   B40       1.0  0.13900  0.28200  0.52700  1.0000
  H   H1        1.0  0.66200  0.38600  0.49700  1.0000
  H   H2        1.0  0.83800  0.88600  0.00317  1.0000
  H   H3        1.0  0.33800  0.61400  0.50300  1.0000
  H   H4        1.0  0.16200  0.11400  0.99700  1.0000
  H   H5        1.0  0.64300  0.21800  0.20900  1.0000
  H   H6        1.0  0.85700  0.71800  0.29100  1.0000
  H   H7        1.0  0.35700  0.78200  0.79100  1.0000
  H   H8        1.0  0.14300  0.28200  0.70900  1.0000
  H   H9        1.0  0.43100  0.20300  0.98900  1.0000
  H   H10       1.0  0.06920  0.70300  0.51100  1.0000
  H   H11       1.0  0.56900  0.79700  0.01100  1.0000
  H   H12       1.0  0.93100  0.29700  0.48900  1.0000
  H   H13       1.0  0.60300  0.45400  0.99500  1.0000
  H   H14       1.0  0.89700  0.95400  0.50500  1.0000
  H   H15       1.0  0.39700  0.54600  0.00509  1.0000
  H   H16       1.0  0.10300  0.04620  0.49500  1.0000
  H   H17       1.0  0.56700  0.99400  0.86000  1.0000
  H   H18       1.0  0.93300  0.49400  0.64000  1.0000
  H   H19       1.0  0.43300  0.00577  0.14000  1.0000
  H   H20       1.0  0.06650  0.50600  0.36000  1.0000
  H   H21       1.0  0.73600  0.12900  0.51800  1.0000
  H   H22       1.0  0.76400  0.62900  0.98200  1.0000
  H   H23       1.0  0.26400  0.87100  0.48200  1.0000
  H   H24       1.0  0.23600  0.37100  0.01830  1.0000
  H   H25       1.0  0.80800  0.34900  0.85900  1.0000
  H   H26       1.0  0.69200  0.84900  0.64100  1.0000
  H   H27       1.0  0.19200  0.65100  0.14100  1.0000
  H   H28       1.0  0.30800  0.15100  0.35900  1.0000
  H   H29       1.0  0.79700  0.06760  0.96400  1.0000
  H   H30       1.0  0.70300  0.56800  0.53600  1.0000
  H   H31       1.0  0.20300  0.93200  0.03640  1.0000
  H   H32       1.0  0.29700  0.43200  0.46400  1.0000
  H   H33       1.0  0.43200  0.40200  0.66100  1.0000
  H   H34       1.0  0.06780  0.90200  0.83900  1.0000
  H   H35       1.0  0.56800  0.59800  0.33900  1.0000
  H   H36       1.0  0.93200  0.09850  0.16100  1.0000
  H   H37       1.0  0.49400  0.14000  0.50000  1.0000
  H   H38       1.0  0.00630  0.64000  0.00000  1.0000
  H   H39       1.0  0.50600  0.86000  0.50000  1.0000
  H   H40       1.0  0.99400  0.36000  0.00047  1.0000
  K   K1        1.0  0.95700  0.13300  0.76900  1.0000
  K   K2        1.0  0.54300  0.63300  0.73100  1.0000
  K   K3        1.0  0.04270  0.86700  0.23100  1.0000
  K   K4        1.0  0.45700  0.36700  0.26900  1.0000
  K   K5        1.0  0.32500  0.04700  0.73400  1.0000
  K   K6        1.0  0.17500  0.54700  0.76600  1.0000
  K   K7        1.0  0.67500  0.95300  0.26600  1.0000
  K   K8        1.0  0.82500  0.45300  0.23400  1.0000
