data_image0
_chemical_formula_structural       B40H40Na8
_chemical_formula_sum              "B40 H40 Na8"
_cell_length_a       10.1133
_cell_length_b       11.9445
_cell_length_c       6.49845
_cell_angle_alpha    90
_cell_angle_beta     94.96
_cell_angle_gamma    90

_space_group_name_H-M_alt    "P 1"
_space_group_IT_number       1

loop_
  _space_group_symop_operation_xyz
  'x, y, z'

loop_
  _atom_site_type_symbol
  _atom_site_label
  _atom_site_symmetry_multiplicity
  _atom_site_fract_x
  _atom_site_fract_y
  _atom_site_fract_z
  _atom_site_occupancy
  B   B1        1.0  0.22400  0.32300  0.91100  1.0000
  B   B2        1.0  0.27600  0.82300  0.58900  1.0000
  B   B3        1.0  0.77600  0.67700  0.08910  1.0000
  B   B4        1.0  0.72400  0.17700  0.41100  1.0000
  B   B5        1.0  0.32800  0.29100  0.70600  1.0000
  B   B6        1.0  0.17200  0.79100  0.79400  1.0000
  B   B7        1.0  0.67200  0.70900  0.29400  1.0000
  B   B8        1.0  0.82800  0.20900  0.20600  1.0000
  B   B9        1.0  0.33900  0.50600  0.71900  1.0000
  B   B10       1.0  0.16100  0.00614  0.78100  1.0000
  B   B11       1.0  0.66100  0.49400  0.28100  1.0000
  B   B12       1.0  0.83900  0.99400  0.21900  1.0000
  B   B13       1.0  0.15900  0.32900  0.63800  1.0000
  B   B14       1.0  0.34100  0.82900  0.86200  1.0000
  B   B15       1.0  0.84100  0.67100  0.36200  1.0000
  B   B16       1.0  0.65900  0.17100  0.13800  1.0000
  B   B17       1.0  0.16700  0.48200  0.64800  1.0000
  B   B18       1.0  0.33300  0.98200  0.85200  1.0000
  B   B19       1.0  0.83300  0.51800  0.35200  1.0000
  B   B20       1.0  0.66700  0.01760  0.14800  1.0000
  B   B21       1.0  0.09320  0.40600  0.82500  1.0000
  B   B22       1.0  0.40700  0.90600  0.67500  1.0000
  B   B23       1.0  0.90700  0.59400  0.17500  1.0000
  B   B24       1.0  0.59300  0.09430  0.32500  1.0000
  B   B25       1.0  0.37900  0.39500  0.90300  1.0000
  B   B26       1.0  0.12100  0.89500  0.59700  1.0000
  B   B27       1.0  0.62100  0.60500  0.09750  1.0000
  B   B28       1.0  0.87900  0.10500  0.40300  1.0000
  B   B29       1.0  0.23200  0.47600  0.91900  1.0000
  B   B30       1.0  0.26800  0.97600  0.58100  1.0000
  B   B31       1.0  0.76800  0.52400  0.08140  1.0000
  B   B32       1.0  0.73200  0.02400  0.41900  1.0000
  B   B33       1.0  0.43600  0.39600  0.66600  1.0000
  B   B34       1.0  0.06390  0.89600  0.83400  1.0000
  B   B35       1.0  0.56400  0.60400  0.33400  1.0000
  B   B36       1.0  0.93600  0.10400  0.16600  1.0000
  B   B37       1.0  0.28700  0.40400  0.52300  1.0000
  B   B38       1.0  0.21300  0.90400  0.97700  1.0000
  B   B39       1.0  0.71300  0.59600  0.47700  1.0000
  B   B40       1.0  0.78700  0.09590  0.02310  1.0000
  H   H1        1.0  0.21100  0.25400  0.04390  1.0000
  H   H2        1.0  0.28900  0.75400  0.45600  1.0000
  H   H3        1.0  0.78900  0.74600  0.95600  1.0000
  H   H4        1.0  0.71100  0.24600  0.54400  1.0000
  H   H5        1.0  0.28400  0.41000  0.33700  1.0000
  H   H6        1.0  0.21600  0.91000  0.16300  1.0000
  H   H7        1.0  0.71600  0.59000  0.66300  1.0000
  H   H8        1.0  0.78400  0.09030  0.83700  1.0000
  H   H9        1.0  0.10800  0.55300  0.54400  1.0000
  H   H10       1.0  0.39200  0.05320  0.95600  1.0000
  H   H11       1.0  0.89200  0.44700  0.45600  1.0000
  H   H12       1.0  0.60800  0.94700  0.04360  1.0000
  H   H13       1.0  0.09060  0.26600  0.53000  1.0000
  H   H14       1.0  0.40900  0.76600  0.97000  1.0000
  H   H15       1.0  0.90900  0.73400  0.47000  1.0000
  H   H16       1.0  0.59100  0.23400  0.02980  1.0000
  H   H17       1.0  0.37500  0.60100  0.70600  1.0000
  H   H18       1.0  0.12500  0.10100  0.79400  1.0000
  H   H19       1.0  0.62500  0.39900  0.29400  1.0000
  H   H20       1.0  0.87500  0.89900  0.20600  1.0000
  H   H21       1.0  0.46300  0.39500  0.04310  1.0000
  H   H22       1.0  0.03680  0.89500  0.45700  1.0000
  H   H23       1.0  0.53700  0.60500  0.95700  1.0000
  H   H24       1.0  0.96300  0.10500  0.54300  1.0000
  H   H25       1.0  0.35500  0.19400  0.67700  1.0000
  H   H26       1.0  0.14500  0.69400  0.82300  1.0000
  H   H27       1.0  0.64500  0.80600  0.32300  1.0000
  H   H28       1.0  0.85500  0.30600  0.17700  1.0000
  H   H29       1.0  0.54800  0.39200  0.61900  1.0000
  H   H30       1.0  0.95200  0.89200  0.88100  1.0000
  H   H31       1.0  0.45200  0.60800  0.38100  1.0000
  H   H32       1.0  0.04760  0.10800  0.11900  1.0000
  H   H33       1.0  0.98100  0.40900  0.87300  1.0000
  H   H34       1.0  0.51900  0.90900  0.62700  1.0000
  H   H35       1.0  0.01950  0.59100  0.12700  1.0000
  H   H36       1.0  0.48100  0.09100  0.37300  1.0000
  H   H37       1.0  0.23000  0.54200  0.05890  1.0000
  H   H38       1.0  0.27000  0.04170  0.44100  1.0000
  H   H39       1.0  0.77000  0.45800  0.94100  1.0000
  H   H40       1.0  0.73000  0.95800  0.55900  1.0000
  Na  Na1       1.0  0.55500  0.71600  0.70800  1.0000
  Na  Na2       1.0  0.94500  0.21600  0.79200  1.0000
  Na  Na3       1.0  0.44500  0.28400  0.29200  1.0000
  Na  Na4       1.0  0.05530  0.78400  0.20800  1.0000
  Na  Na5       1.0  0.94300  0.60800  0.75800  1.0000
  Na  Na6       1.0  0.55700  0.10800  0.74200  1.0000
  Na  Na7       1.0  0.05700  0.39200  0.24200  1.0000
  Na  Na8       1.0  0.44300  0.89200  0.25800  1.0000
