data_image0
_chemical_formula_structural       Cs3Te18Tm11
_chemical_formula_sum              "Cs3 Te18 Tm11"
_cell_length_a       13.6207
_cell_length_b       13.6207
_cell_length_c       20.3514
_cell_angle_alpha    79.8693
_cell_angle_beta     100.131
_cell_angle_gamma    161.54

_space_group_name_H-M_alt    "P 1"
_space_group_IT_number       1

loop_
  _space_group_symop_operation_xyz
  'x, y, z'

loop_
  _atom_site_type_symbol
  _atom_site_label
  _atom_site_symmetry_multiplicity
  _atom_site_fract_x
  _atom_site_fract_y
  _atom_site_fract_z
  _atom_site_occupancy
  Cs  Cs1       1.0  0.69800  0.30200  0.59100  1.0000
  Cs  Cs2       1.0  0.30200  0.69800  0.40900  1.0000
  Cs  Cs3       1.0  0.00000  0.00000  0.00000  1.0000
  Te  Te1       1.0  0.08040  0.92000  0.51600  1.0000
  Te  Te2       1.0  0.92000  0.08040  0.48400  1.0000
  Te  Te3       1.0  0.62900  0.37100  0.06990  1.0000
  Te  Te4       1.0  0.37100  0.62900  0.93000  1.0000
  Te  Te5       1.0  0.79100  0.20900  0.07740  1.0000
  Te  Te6       1.0  0.20900  0.79100  0.92300  1.0000
  Te  Te7       1.0  0.32700  0.67300  0.62100  1.0000
  Te  Te8       1.0  0.67300  0.32700  0.37900  1.0000
  Te  Te9       1.0  0.07620  0.92400  0.21800  1.0000
  Te  Te10      1.0  0.92400  0.07620  0.78200  1.0000
  Te  Te11      1.0  0.50700  0.49300  0.35000  1.0000
  Te  Te12      1.0  0.49300  0.50700  0.65000  1.0000
  Te  Te13      1.0  0.23300  0.76700  0.22300  1.0000
  Te  Te14      1.0  0.76700  0.23300  0.77700  1.0000
  Te  Te15      1.0  0.13300  0.86700  0.71800  1.0000
  Te  Te16      1.0  0.86700  0.13300  0.28200  1.0000
  Te  Te17      1.0  0.43900  0.56100  0.13900  1.0000
  Te  Te18      1.0  0.56100  0.43900  0.86100  1.0000
  Tm  Tm1       1.0  0.50000  0.50000  0.50000  1.0000
  Tm  Tm2       1.0  0.03200  0.96800  0.75900  1.0000
  Tm  Tm3       1.0  0.96800  0.03200  0.24100  1.0000
  Tm  Tm4       1.0  0.65400  0.34600  0.22400  1.0000
  Tm  Tm5       1.0  0.34600  0.65400  0.77600  1.0000
  Tm  Tm6       1.0  0.33800  0.66200  0.18200  1.0000
  Tm  Tm7       1.0  0.66200  0.33800  0.81800  1.0000
  Tm  Tm8       1.0  0.20400  0.79600  0.07150  1.0000
  Tm  Tm9       1.0  0.79600  0.20400  0.92800  1.0000
  Tm  Tm10      1.0  0.09340  0.90700  0.37200  1.0000
  Tm  Tm11      1.0  0.90700  0.09340  0.62800  1.0000
