data_image0
_chemical_formula_structural       H24K8Li4N12
_chemical_formula_sum              "H24 K8 Li4 N12"
_cell_length_a       6.62863
_cell_length_b       6.62863
_cell_length_c       11.2924
_cell_angle_alpha    90
_cell_angle_beta     90
_cell_angle_gamma    90

_space_group_name_H-M_alt    "P 1"
_space_group_IT_number       1

loop_
  _space_group_symop_operation_xyz
  'x, y, z'

loop_
  _atom_site_type_symbol
  _atom_site_label
  _atom_site_symmetry_multiplicity
  _atom_site_fract_x
  _atom_site_fract_y
  _atom_site_fract_z
  _atom_site_occupancy
  H   H1        1.0  0.14900  0.17400  0.21300  1.0000
  H   H2        1.0  0.85100  0.82600  0.21300  1.0000
  H   H3        1.0  0.82600  0.14900  0.71300  1.0000
  H   H4        1.0  0.17400  0.85100  0.71300  1.0000
  H   H5        1.0  0.85100  0.82600  0.78700  1.0000
  H   H6        1.0  0.14900  0.17400  0.78700  1.0000
  H   H7        1.0  0.17400  0.85100  0.28700  1.0000
  H   H8        1.0  0.82600  0.14900  0.28700  1.0000
  H   H9        1.0  0.04820  0.34400  0.12900  1.0000
  H   H10       1.0  0.95200  0.65600  0.12900  1.0000
  H   H11       1.0  0.65600  0.04820  0.62900  1.0000
  H   H12       1.0  0.34400  0.95200  0.62900  1.0000
  H   H13       1.0  0.95200  0.65600  0.87100  1.0000
  H   H14       1.0  0.04820  0.34400  0.87100  1.0000
  H   H15       1.0  0.34400  0.95200  0.37100  1.0000
  H   H16       1.0  0.65600  0.04820  0.37100  1.0000
  H   H17       1.0  0.74800  0.32600  0.07120  1.0000
  H   H18       1.0  0.25200  0.67400  0.07120  1.0000
  H   H19       1.0  0.67400  0.74800  0.57100  1.0000
  H   H20       1.0  0.32600  0.25200  0.57100  1.0000
  H   H21       1.0  0.25200  0.67400  0.92900  1.0000
  H   H22       1.0  0.74800  0.32600  0.92900  1.0000
  H   H23       1.0  0.32600  0.25200  0.42900  1.0000
  H   H24       1.0  0.67400  0.74800  0.42900  1.0000
  K   K1        1.0  0.50000  0.50000  0.25000  1.0000
  K   K2        1.0  0.50000  0.50000  0.75000  1.0000
  K   K3        1.0  0.00000  0.00000  0.00000  1.0000
  K   K4        1.0  0.00000  0.00000  0.50000  1.0000
  K   K5        1.0  0.50000  0.00000  0.15000  1.0000
  K   K6        1.0  0.00000  0.50000  0.65000  1.0000
  K   K7        1.0  0.50000  0.00000  0.85000  1.0000
  K   K8        1.0  0.00000  0.50000  0.35000  1.0000
  Li  Li1       1.0  0.34500  0.36500  0.00000  1.0000
  Li  Li2       1.0  0.65500  0.63500  0.00000  1.0000
  Li  Li3       1.0  0.63500  0.34500  0.50000  1.0000
  Li  Li4       1.0  0.36500  0.65500  0.50000  1.0000
  N   N1        1.0  0.65300  0.30300  0.00000  1.0000
  N   N2        1.0  0.34700  0.69700  0.00000  1.0000
  N   N3        1.0  0.69700  0.65300  0.50000  1.0000
  N   N4        1.0  0.30300  0.34700  0.50000  1.0000
  N   N5        1.0  0.18700  0.28500  0.15200  1.0000
  N   N6        1.0  0.81300  0.71500  0.15200  1.0000
  N   N7        1.0  0.71500  0.18700  0.65200  1.0000
  N   N8        1.0  0.28500  0.81300  0.65200  1.0000
  N   N9        1.0  0.81300  0.71500  0.84800  1.0000
  N   N10       1.0  0.18700  0.28500  0.84800  1.0000
  N   N11       1.0  0.28500  0.81300  0.34800  1.0000
  N   N12       1.0  0.71500  0.18700  0.34800  1.0000
