data_image0
_chemical_formula_structural       H24K8N12Na4
_chemical_formula_sum              "H24 K8 N12 Na4"
_cell_length_a       6.76015
_cell_length_b       6.76015
_cell_length_c       11.9216
_cell_angle_alpha    90
_cell_angle_beta     90
_cell_angle_gamma    90

_space_group_name_H-M_alt    "P 1"
_space_group_IT_number       1

loop_
  _space_group_symop_operation_xyz
  'x, y, z'

loop_
  _atom_site_type_symbol
  _atom_site_label
  _atom_site_symmetry_multiplicity
  _atom_site_fract_x
  _atom_site_fract_y
  _atom_site_fract_z
  _atom_site_occupancy
  H   H1        1.0  0.16000  0.13900  0.22500  1.0000
  H   H2        1.0  0.84000  0.86100  0.22500  1.0000
  H   H3        1.0  0.86100  0.16000  0.72500  1.0000
  H   H4        1.0  0.13900  0.84000  0.72500  1.0000
  H   H5        1.0  0.84000  0.86100  0.77500  1.0000
  H   H6        1.0  0.16000  0.13900  0.77500  1.0000
  H   H7        1.0  0.13900  0.84000  0.27500  1.0000
  H   H8        1.0  0.86100  0.16000  0.27500  1.0000
  H   H9        1.0  0.33300  0.04170  0.15000  1.0000
  H   H10       1.0  0.66700  0.95800  0.15000  1.0000
  H   H11       1.0  0.95800  0.33300  0.65000  1.0000
  H   H12       1.0  0.04170  0.66700  0.65000  1.0000
  H   H13       1.0  0.66700  0.95800  0.85000  1.0000
  H   H14       1.0  0.33300  0.04170  0.85000  1.0000
  H   H15       1.0  0.04170  0.66700  0.35000  1.0000
  H   H16       1.0  0.95800  0.33300  0.35000  1.0000
  H   H17       1.0  0.70300  0.23800  0.06770  1.0000
  H   H18       1.0  0.29700  0.76200  0.06770  1.0000
  H   H19       1.0  0.76200  0.70300  0.56800  1.0000
  H   H20       1.0  0.23800  0.29700  0.56800  1.0000
  H   H21       1.0  0.29700  0.76200  0.93200  1.0000
  H   H22       1.0  0.70300  0.23800  0.93200  1.0000
  H   H23       1.0  0.23800  0.29700  0.43200  1.0000
  H   H24       1.0  0.76200  0.70300  0.43200  1.0000
  K   K1        1.0  0.50000  0.50000  0.25000  1.0000
  K   K2        1.0  0.50000  0.50000  0.75000  1.0000
  K   K3        1.0  0.00000  0.00000  0.00000  1.0000
  K   K4        1.0  0.00000  0.00000  0.50000  1.0000
  K   K5        1.0  0.00000  0.50000  0.15000  1.0000
  K   K6        1.0  0.50000  0.00000  0.65000  1.0000
  K   K7        1.0  0.00000  0.50000  0.85000  1.0000
  K   K8        1.0  0.50000  0.00000  0.35000  1.0000
  N   N1        1.0  0.72300  0.33200  0.00000  1.0000
  N   N2        1.0  0.27700  0.66800  0.00000  1.0000
  N   N3        1.0  0.66800  0.72300  0.50000  1.0000
  N   N4        1.0  0.33200  0.27700  0.50000  1.0000
  N   N5        1.0  0.27000  0.17700  0.16800  1.0000
  N   N6        1.0  0.73000  0.82300  0.16800  1.0000
  N   N7        1.0  0.82300  0.27000  0.66800  1.0000
  N   N8        1.0  0.17700  0.73000  0.66800  1.0000
  N   N9        1.0  0.73000  0.82300  0.83200  1.0000
  N   N10       1.0  0.27000  0.17700  0.83200  1.0000
  N   N11       1.0  0.17700  0.73000  0.33200  1.0000
  N   N12       1.0  0.82300  0.27000  0.33200  1.0000
  Na  Na1       1.0  0.36200  0.32400  0.00000  1.0000
  Na  Na2       1.0  0.63800  0.67600  0.00000  1.0000
  Na  Na3       1.0  0.67600  0.36200  0.50000  1.0000
  Na  Na4       1.0  0.32400  0.63800  0.50000  1.0000
