data_image0
_chemical_formula_structural       Ag6K6Se16Ta4
_chemical_formula_sum              "Ag6 K6 Se16 Ta4"
_cell_length_a       12.9659
_cell_length_b       12.9659
_cell_length_c       14.3958
_cell_angle_alpha    60.8277
_cell_angle_beta     119.172
_cell_angle_gamma    152.674

_space_group_name_H-M_alt    "P 1"
_space_group_IT_number       1

loop_
  _space_group_symop_operation_xyz
  'x, y, z'

loop_
  _atom_site_type_symbol
  _atom_site_label
  _atom_site_symmetry_multiplicity
  _atom_site_fract_x
  _atom_site_fract_y
  _atom_site_fract_z
  _atom_site_occupancy
  Ag  Ag1       1.0  0.33000  0.06840  0.29500  1.0000
  Ag  Ag2       1.0  0.06840  0.33000  0.20500  1.0000
  Ag  Ag3       1.0  0.67000  0.93200  0.70500  1.0000
  Ag  Ag4       1.0  0.93200  0.67000  0.79500  1.0000
  Ag  Ag5       1.0  0.68900  0.68900  0.25000  1.0000
  Ag  Ag6       1.0  0.31100  0.31100  0.75000  1.0000
  K   K1        1.0  0.00000  0.00000  0.00000  1.0000
  K   K2        1.0  0.00000  1.00000  0.50000  1.0000
  K   K3        1.0  0.62600  0.24200  0.10500  1.0000
  K   K4        1.0  0.24200  0.62600  0.39500  1.0000
  K   K5        1.0  0.37400  0.75800  0.89500  1.0000
  K   K6        1.0  0.75800  0.37400  0.60500  1.0000
  Se  Se1       1.0  0.00641  0.80800  0.39500  1.0000
  Se  Se2       1.0  0.80800  0.00641  0.10500  1.0000
  Se  Se3       1.0  0.99400  0.19200  0.60500  1.0000
  Se  Se4       1.0  0.19200  0.99400  0.89500  1.0000
  Se  Se5       1.0  0.70500  0.26700  0.40400  1.0000
  Se  Se6       1.0  0.26700  0.70500  0.09630  1.0000
  Se  Se7       1.0  0.29500  0.73300  0.59600  1.0000
  Se  Se8       1.0  0.73300  0.29500  0.90400  1.0000
  Se  Se9       1.0  0.51900  0.42500  0.14700  1.0000
  Se  Se10      1.0  0.42500  0.51900  0.35300  1.0000
  Se  Se11      1.0  0.48100  0.57500  0.85300  1.0000
  Se  Se12      1.0  0.57500  0.48100  0.64700  1.0000
  Se  Se13      1.0  0.09130  0.76900  0.18200  1.0000
  Se  Se14      1.0  0.76900  0.09130  0.31800  1.0000
  Se  Se15      1.0  0.90900  0.23100  0.81800  1.0000
  Se  Se16      1.0  0.23100  0.90900  0.68200  1.0000
  Ta  Ta1       1.0  0.82900  0.56800  0.28400  1.0000
  Ta  Ta2       1.0  0.56800  0.82900  0.21600  1.0000
  Ta  Ta3       1.0  0.17100  0.43200  0.71600  1.0000
  Ta  Ta4       1.0  0.43200  0.17100  0.78400  1.0000
