data_image0
_chemical_formula_structural       Al8Ca20N32Si8
_chemical_formula_sum              "Al8 Ca20 N32 Si8"
_cell_length_a       9.1947
_cell_length_b       6.12022
_cell_length_c       15.4104
_cell_angle_alpha    90
_cell_angle_beta     90
_cell_angle_gamma    90

_space_group_name_H-M_alt    "P 1"
_space_group_IT_number       1

loop_
  _space_group_symop_operation_xyz
  'x, y, z'

loop_
  _atom_site_type_symbol
  _atom_site_label
  _atom_site_symmetry_multiplicity
  _atom_site_fract_x
  _atom_site_fract_y
  _atom_site_fract_z
  _atom_site_occupancy
  Al  Al1       1.0  0.35500  0.41100  0.26300  1.0000
  Al  Al2       1.0  0.14500  0.08860  0.76300  1.0000
  Al  Al3       1.0  0.85500  0.08860  0.73700  1.0000
  Al  Al4       1.0  0.64500  0.41100  0.23700  1.0000
  Al  Al5       1.0  0.64500  0.58900  0.73700  1.0000
  Al  Al6       1.0  0.85500  0.91100  0.23700  1.0000
  Al  Al7       1.0  0.14500  0.91100  0.26300  1.0000
  Al  Al8       1.0  0.35500  0.58900  0.76300  1.0000
  Ca  Ca1       1.0  0.30100  0.17200  0.10400  1.0000
  Ca  Ca2       1.0  0.19900  0.32800  0.60400  1.0000
  Ca  Ca3       1.0  0.80100  0.32800  0.89600  1.0000
  Ca  Ca4       1.0  0.69900  0.17200  0.39600  1.0000
  Ca  Ca5       1.0  0.69900  0.82800  0.89600  1.0000
  Ca  Ca6       1.0  0.80100  0.67200  0.39600  1.0000
  Ca  Ca7       1.0  0.19900  0.67200  0.10400  1.0000
  Ca  Ca8       1.0  0.30100  0.82800  0.60400  1.0000
  Ca  Ca9       1.0  0.00000  0.36500  0.25000  1.0000
  Ca  Ca10      1.0  0.50000  0.13500  0.75000  1.0000
  Ca  Ca11      1.0  0.00000  0.63500  0.75000  1.0000
  Ca  Ca12      1.0  0.50000  0.86500  0.25000  1.0000
  Ca  Ca13      1.0  0.35900  0.12600  0.42500  1.0000
  Ca  Ca14      1.0  0.14100  0.37400  0.92500  1.0000
  Ca  Ca15      1.0  0.85900  0.37400  0.57500  1.0000
  Ca  Ca16      1.0  0.64100  0.12600  0.07470  1.0000
  Ca  Ca17      1.0  0.64100  0.87400  0.57500  1.0000
  Ca  Ca18      1.0  0.85900  0.62600  0.07470  1.0000
  Ca  Ca19      1.0  0.14100  0.62600  0.42500  1.0000
  Ca  Ca20      1.0  0.35900  0.87400  0.92500  1.0000
  N   N1        1.0  0.04720  0.36200  0.09070  1.0000
  N   N2        1.0  0.45300  0.13800  0.59100  1.0000
  N   N3        1.0  0.54700  0.13800  0.90900  1.0000
  N   N4        1.0  0.95300  0.36200  0.40900  1.0000
  N   N5        1.0  0.95300  0.63800  0.90900  1.0000
  N   N6        1.0  0.54700  0.86200  0.40900  1.0000
  N   N7        1.0  0.45300  0.86200  0.09070  1.0000
  N   N8        1.0  0.04720  0.63800  0.59100  1.0000
  N   N9        1.0  0.14200  0.01350  0.49500  1.0000
  N   N10       1.0  0.35800  0.48600  0.99500  1.0000
  N   N11       1.0  0.64200  0.48600  0.50500  1.0000
  N   N12       1.0  0.85800  0.01350  0.00546  1.0000
  N   N13       1.0  0.85800  0.98600  0.50500  1.0000
  N   N14       1.0  0.64200  0.51400  0.00546  1.0000
  N   N15       1.0  0.35800  0.51400  0.49500  1.0000
  N   N16       1.0  0.14200  0.98600  0.99500  1.0000
  N   N17       1.0  0.27800  0.13400  0.26800  1.0000
  N   N18       1.0  0.22200  0.36600  0.76800  1.0000
  N   N19       1.0  0.77800  0.36600  0.73200  1.0000
  N   N20       1.0  0.72200  0.13400  0.23200  1.0000
  N   N21       1.0  0.72200  0.86600  0.73200  1.0000
  N   N22       1.0  0.77800  0.63400  0.23200  1.0000
  N   N23       1.0  0.22200  0.63400  0.26800  1.0000
  N   N24       1.0  0.27800  0.86600  0.76800  1.0000
  N   N25       1.0  0.48000  0.42700  0.16100  1.0000
  N   N26       1.0  0.02010  0.07290  0.66100  1.0000
  N   N27       1.0  0.98000  0.07290  0.83900  1.0000
  N   N28       1.0  0.52000  0.42700  0.33900  1.0000
  N   N29       1.0  0.52000  0.57300  0.83900  1.0000
  N   N30       1.0  0.98000  0.92700  0.33900  1.0000
  N   N31       1.0  0.02010  0.92700  0.16100  1.0000
  N   N32       1.0  0.48000  0.57300  0.66100  1.0000
  Si  Si1       1.0  0.00620  0.09570  0.07070  1.0000
  Si  Si2       1.0  0.49400  0.40400  0.57100  1.0000
  Si  Si3       1.0  0.50600  0.40400  0.92900  1.0000
  Si  Si4       1.0  0.99400  0.09570  0.42900  1.0000
  Si  Si5       1.0  0.99400  0.90400  0.92900  1.0000
  Si  Si6       1.0  0.50600  0.59600  0.42900  1.0000
  Si  Si7       1.0  0.49400  0.59600  0.07070  1.0000
  Si  Si8       1.0  0.00620  0.90400  0.57100  1.0000
