data_image0
_chemical_formula_structural       B20C20La20
_chemical_formula_sum              "B20 C20 La20"
_cell_length_a       8.6609
_cell_length_b       8.69027
_cell_length_c       12.3793
_cell_angle_alpha    90
_cell_angle_beta     90
_cell_angle_gamma    90

_space_group_name_H-M_alt    "P 1"
_space_group_IT_number       1

loop_
  _space_group_symop_operation_xyz
  'x, y, z'

loop_
  _atom_site_type_symbol
  _atom_site_label
  _atom_site_symmetry_multiplicity
  _atom_site_fract_x
  _atom_site_fract_y
  _atom_site_fract_z
  _atom_site_occupancy
  B   B1        1.0  0.68500  0.19000  0.50700  1.0000
  B   B2        1.0  0.81500  0.81000  0.00658  1.0000
  B   B3        1.0  0.18500  0.31000  0.49300  1.0000
  B   B4        1.0  0.31500  0.69000  0.99300  1.0000
  B   B5        1.0  0.88300  0.89700  0.78600  1.0000
  B   B6        1.0  0.61700  0.10300  0.28600  1.0000
  B   B7        1.0  0.38300  0.60300  0.21400  1.0000
  B   B8        1.0  0.11700  0.39700  0.71400  1.0000
  B   B9        1.0  0.06190  0.30000  0.82100  1.0000
  B   B10       1.0  0.43800  0.70000  0.32100  1.0000
  B   B11       1.0  0.56200  0.20000  0.17900  1.0000
  B   B12       1.0  0.93800  0.80000  0.67900  1.0000
  B   B13       1.0  0.09850  0.97100  0.24300  1.0000
  B   B14       1.0  0.40100  0.02920  0.74300  1.0000
  B   B15       1.0  0.59900  0.52900  0.75700  1.0000
  B   B16       1.0  0.90100  0.47100  0.25700  1.0000
  B   B17       1.0  0.51900  0.61400  0.54000  1.0000
  B   B18       1.0  0.98100  0.38600  0.03950  1.0000
  B   B19       1.0  0.01870  0.88600  0.46000  1.0000
  B   B20       1.0  0.48100  0.11400  0.96000  1.0000
  C   C1        1.0  0.35400  0.60700  0.09450  1.0000
  C   C2        1.0  0.14600  0.39300  0.59500  1.0000
  C   C3        1.0  0.85400  0.89300  0.90500  1.0000
  C   C4        1.0  0.64600  0.10700  0.40500  1.0000
  C   C5        1.0  0.02580  0.30800  0.93800  1.0000
  C   C6        1.0  0.47400  0.69200  0.43800  1.0000
  C   C7        1.0  0.52600  0.19200  0.06200  1.0000
  C   C8        1.0  0.97400  0.80800  0.56200  1.0000
  C   C9        1.0  0.05510  0.89100  0.34400  1.0000
  C   C10       1.0  0.44500  0.10900  0.84400  1.0000
  C   C11       1.0  0.55500  0.60900  0.65600  1.0000
  C   C12       1.0  0.94500  0.39100  0.15600  1.0000
  C   C13       1.0  0.85800  0.49900  0.37000  1.0000
  C   C14       1.0  0.64200  0.50100  0.87000  1.0000
  C   C15       1.0  0.35800  0.00106  0.63000  1.0000
  C   C16       1.0  0.14200  0.99900  0.13000  1.0000
  C   C17       1.0  0.75400  0.79700  0.11700  1.0000
  C   C18       1.0  0.74600  0.20300  0.61700  1.0000
  C   C19       1.0  0.25400  0.70300  0.88300  1.0000
  C   C20       1.0  0.24600  0.29700  0.38300  1.0000
  La  La1       1.0  0.06120  0.69800  0.13200  1.0000
  La  La2       1.0  0.43900  0.30200  0.63200  1.0000
  La  La3       1.0  0.56100  0.80200  0.86800  1.0000
  La  La4       1.0  0.93900  0.19800  0.36800  1.0000
  La  La5       1.0  0.75400  0.79000  0.32700  1.0000
  La  La6       1.0  0.74600  0.21000  0.82700  1.0000
  La  La7       1.0  0.25400  0.71000  0.67300  1.0000
  La  La8       1.0  0.24600  0.29000  0.17300  1.0000
  La  La9       1.0  0.66000  0.90800  0.59700  1.0000
  La  La10      1.0  0.84000  0.09210  0.09660  1.0000
  La  La11      1.0  0.16000  0.59200  0.40300  1.0000
  La  La12      1.0  0.34000  0.40800  0.90300  1.0000
  La  La13      1.0  0.84000  0.49400  0.58000  1.0000
  La  La14      1.0  0.66000  0.50600  0.08030  1.0000
  La  La15      1.0  0.34000  0.00620  0.42000  1.0000
  La  La16      1.0  0.16000  0.99400  0.92000  1.0000
  La  La17      1.0  0.94900  0.59800  0.85900  1.0000
  La  La18      1.0  0.55100  0.40200  0.35900  1.0000
  La  La19      1.0  0.44900  0.90200  0.14100  1.0000
  La  La20      1.0  0.05070  0.09780  0.64100  1.0000
