data_image0
_chemical_formula_structural       C4I18La10
_chemical_formula_sum              "C4 I18 La10"
_cell_length_a       8.11296
_cell_length_b       10.235
_cell_length_c       14.6217
_cell_angle_alpha    79.575
_cell_angle_beta     80.8788
_cell_angle_gamma    85.1417

_space_group_name_H-M_alt    "P 1"
_space_group_IT_number       1

loop_
  _space_group_symop_operation_xyz
  'x, y, z'

loop_
  _atom_site_type_symbol
  _atom_site_label
  _atom_site_symmetry_multiplicity
  _atom_site_fract_x
  _atom_site_fract_y
  _atom_site_fract_z
  _atom_site_occupancy
  C   C1        1.0  0.09240  0.34600  0.24300  1.0000
  C   C2        1.0  0.90800  0.65400  0.75700  1.0000
  C   C3        1.0  0.03960  0.22500  0.21800  1.0000
  C   C4        1.0  0.96000  0.77500  0.78200  1.0000
  I   I1        1.0  0.54400  0.15600  0.19700  1.0000
  I   I2        1.0  0.45600  0.84400  0.80300  1.0000
  I   I3        1.0  0.88100  0.34300  0.99700  1.0000
  I   I4        1.0  0.11900  0.65700  0.00257  1.0000
  I   I5        1.0  0.49200  0.55100  0.13500  1.0000
  I   I6        1.0  0.50800  0.44900  0.86500  1.0000
  I   I7        1.0  0.91000  0.35000  0.47300  1.0000
  I   I8        1.0  0.09040  0.65000  0.52700  1.0000
  I   I9        1.0  0.42700  0.34700  0.42600  1.0000
  I   I10       1.0  0.57300  0.65300  0.57400  1.0000
  I   I11       1.0  0.24600  0.05730  0.00116  1.0000
  I   I12       1.0  0.75400  0.94300  0.99900  1.0000
  I   I13       1.0  0.25500  0.86400  0.27500  1.0000
  I   I14       1.0  0.74600  0.13600  0.72500  1.0000
  I   I15       1.0  0.80600  0.68300  0.27500  1.0000
  I   I16       1.0  0.19400  0.31700  0.72500  1.0000
  I   I17       1.0  0.80300  0.00538  0.41400  1.0000
  I   I18       1.0  0.19700  0.99500  0.58600  1.0000
  La  La1       1.0  0.77700  0.36500  0.26400  1.0000
  La  La2       1.0  0.22300  0.63500  0.73600  1.0000
  La  La3       1.0  0.94900  0.03490  0.17700  1.0000
  La  La4       1.0  0.05080  0.96500  0.82300  1.0000
  La  La5       1.0  0.23400  0.33900  0.08160  1.0000
  La  La6       1.0  0.76600  0.66100  0.91800  1.0000
  La  La7       1.0  0.17700  0.14700  0.36000  1.0000
  La  La8       1.0  0.82300  0.85300  0.64000  1.0000
  La  La9       1.0  0.16000  0.53100  0.30300  1.0000
  La  La10      1.0  0.84000  0.46900  0.69700  1.0000
