data_image0
_chemical_formula_structural       C4I15La10
_chemical_formula_sum              "C4 I15 La10"
_cell_length_a       9.90177
_cell_length_b       10.7966
_cell_length_c       11.9292
_cell_angle_alpha    93.7702
_cell_angle_beta     114.686
_cell_angle_gamma    109.166

_space_group_name_H-M_alt    "P 1"
_space_group_IT_number       1

loop_
  _space_group_symop_operation_xyz
  'x, y, z'

loop_
  _atom_site_type_symbol
  _atom_site_label
  _atom_site_symmetry_multiplicity
  _atom_site_fract_x
  _atom_site_fract_y
  _atom_site_fract_z
  _atom_site_occupancy
  C   C1        1.0  0.54700  0.63900  0.16600  1.0000
  C   C2        1.0  0.45300  0.36100  0.83400  1.0000
  C   C3        1.0  0.48300  0.30000  0.93700  1.0000
  C   C4        1.0  0.51700  0.70000  0.06290  1.0000
  I   I1        1.0  0.89700  0.81100  0.53500  1.0000
  I   I2        1.0  0.10300  0.18900  0.46500  1.0000
  I   I3        1.0  0.79800  0.09380  0.06520  1.0000
  I   I4        1.0  0.20200  0.90600  0.93500  1.0000
  I   I5        1.0  0.71200  0.73400  0.81800  1.0000
  I   I6        1.0  0.28800  0.26600  0.18200  1.0000
  I   I7        1.0  0.85300  0.44900  0.29800  1.0000
  I   I8        1.0  0.14700  0.55100  0.70200  1.0000
  I   I9        1.0  0.40100  0.96500  0.64300  1.0000
  I   I10       1.0  0.59900  0.03460  0.35700  1.0000
  I   I11       1.0  0.06140  0.83700  0.22700  1.0000
  I   I12       1.0  0.93900  0.16300  0.77300  1.0000
  I   I13       1.0  0.00000  0.50000  0.00000  1.0000
  I   I14       1.0  0.64100  0.36500  0.58600  1.0000
  I   I15       1.0  0.35900  0.63500  0.41400  1.0000
  La  La1       1.0  0.78000  0.88600  0.26000  1.0000
  La  La2       1.0  0.22000  0.11400  0.74000  1.0000
  La  La3       1.0  0.53100  0.18700  0.10400  1.0000
  La  La4       1.0  0.46900  0.81300  0.89600  1.0000
  La  La5       1.0  0.70600  0.56800  0.04440  1.0000
  La  La6       1.0  0.29400  0.43200  0.95600  1.0000
  La  La7       1.0  0.65700  0.25200  0.83500  1.0000
  La  La8       1.0  0.34300  0.74800  0.16500  1.0000
  La  La9       1.0  0.59800  0.54200  0.34400  1.0000
  La  La10      1.0  0.40200  0.45800  0.65600  1.0000
