data_image0
_chemical_formula_structural       F36Li18Sc6
_chemical_formula_sum              "F36 Li18 Sc6"
_cell_length_a       8.32425
_cell_length_b       8.31971
_cell_length_c       8.83084
_cell_angle_alpha    89.9971
_cell_angle_beta     90
_cell_angle_gamma    120.018

_space_group_name_H-M_alt    "P 1"
_space_group_IT_number       1

loop_
  _space_group_symop_operation_xyz
  'x, y, z'

loop_
  _atom_site_type_symbol
  _atom_site_label
  _atom_site_symmetry_multiplicity
  _atom_site_fract_x
  _atom_site_fract_y
  _atom_site_fract_z
  _atom_site_occupancy
  F   F1        1.0  0.79100  0.56100  0.12000  1.0000
  F   F2        1.0  0.43900  0.23000  0.12000  1.0000
  F   F3        1.0  0.77000  0.20900  0.12000  1.0000
  F   F4        1.0  0.23000  0.43900  0.38000  1.0000
  F   F5        1.0  0.20900  0.77000  0.38000  1.0000
  F   F6        1.0  0.56100  0.79100  0.38000  1.0000
  F   F7        1.0  0.20900  0.43900  0.88000  1.0000
  F   F8        1.0  0.56100  0.77000  0.88000  1.0000
  F   F9        1.0  0.23000  0.79100  0.88000  1.0000
  F   F10       1.0  0.77000  0.56100  0.62000  1.0000
  F   F11       1.0  0.79100  0.23000  0.62000  1.0000
  F   F12       1.0  0.43900  0.20900  0.62000  1.0000
  F   F13       1.0  0.53800  0.43400  0.37300  1.0000
  F   F14       1.0  0.56700  0.10500  0.37300  1.0000
  F   F15       1.0  0.89500  0.46100  0.37300  1.0000
  F   F16       1.0  0.10500  0.56600  0.12700  1.0000
  F   F17       1.0  0.46100  0.89500  0.12700  1.0000
  F   F18       1.0  0.43400  0.53900  0.12700  1.0000
  F   F19       1.0  0.46200  0.56600  0.62700  1.0000
  F   F20       1.0  0.43300  0.89500  0.62700  1.0000
  F   F21       1.0  0.10500  0.53900  0.62700  1.0000
  F   F22       1.0  0.89500  0.43400  0.87300  1.0000
  F   F23       1.0  0.53900  0.10500  0.87300  1.0000
  F   F24       1.0  0.56600  0.46100  0.87300  1.0000
  F   F25       1.0  0.11400  0.23100  0.12100  1.0000
  F   F26       1.0  0.76900  0.88300  0.12100  1.0000
  F   F27       1.0  0.11700  0.88600  0.12100  1.0000
  F   F28       1.0  0.88300  0.76900  0.37900  1.0000
  F   F29       1.0  0.88600  0.11700  0.37900  1.0000
  F   F30       1.0  0.23100  0.11400  0.37900  1.0000
  F   F31       1.0  0.88600  0.76900  0.87900  1.0000
  F   F32       1.0  0.23100  0.11700  0.87900  1.0000
  F   F33       1.0  0.88300  0.11400  0.87900  1.0000
  F   F34       1.0  0.11700  0.23100  0.62100  1.0000
  F   F35       1.0  0.11400  0.88300  0.62100  1.0000
  F   F36       1.0  0.76900  0.88600  0.62100  1.0000
  Li  Li1       1.0  0.00002  0.69100  0.25000  1.0000
  Li  Li2       1.0  0.30900  0.30900  0.25000  1.0000
  Li  Li3       1.0  0.69100  0.00000  0.25000  1.0000
  Li  Li4       1.0  0.00000  0.30900  0.75000  1.0000
  Li  Li5       1.0  0.69100  0.69100  0.75000  1.0000
  Li  Li6       1.0  0.30900  0.00000  0.75000  1.0000
  Li  Li7       1.0  0.65200  0.65400  0.47500  1.0000
  Li  Li8       1.0  0.34600  0.99800  0.47500  1.0000
  Li  Li9       1.0  0.00234  0.34800  0.47500  1.0000
  Li  Li10      1.0  0.99800  0.34600  0.02490  1.0000
  Li  Li11      1.0  0.34800  0.00217  0.02490  1.0000
  Li  Li12      1.0  0.65400  0.65200  0.02490  1.0000
  Li  Li13      1.0  0.34800  0.34600  0.52500  1.0000
  Li  Li14      1.0  0.65400  0.00217  0.52500  1.0000
  Li  Li15      1.0  0.99800  0.65200  0.52500  1.0000
  Li  Li16      1.0  0.00230  0.65400  0.97500  1.0000
  Li  Li17      1.0  0.65200  0.99800  0.97500  1.0000
  Li  Li18      1.0  0.34600  0.34800  0.97500  1.0000
  Sc  Sc1       1.0  0.00000  0.00000  0.00000  1.0000
  Sc  Sc2       1.0  0.00000  0.00000  0.50000  1.0000
  Sc  Sc3       1.0  0.66700  0.33300  0.24700  1.0000
  Sc  Sc4       1.0  0.33300  0.66700  0.25300  1.0000
  Sc  Sc5       1.0  0.33300  0.66700  0.75300  1.0000
  Sc  Sc6       1.0  0.66700  0.33300  0.74700  1.0000
