data_image0
_chemical_formula_structural       Dy4Ge6Pt18
_chemical_formula_sum              "Dy4 Ge6 Pt18"
_cell_length_a       7.81822
_cell_length_b       7.81822
_cell_length_c       10.1094
_cell_angle_alpha    67.1072
_cell_angle_beta     112.893
_cell_angle_gamma    119.752

_space_group_name_H-M_alt    "P 1"
_space_group_IT_number       1

loop_
  _space_group_symop_operation_xyz
  'x, y, z'

loop_
  _atom_site_type_symbol
  _atom_site_label
  _atom_site_symmetry_multiplicity
  _atom_site_fract_x
  _atom_site_fract_y
  _atom_site_fract_z
  _atom_site_occupancy
  Dy  Dy1       1.0  0.58400  0.24600  0.25100  1.0000
  Dy  Dy2       1.0  0.24600  0.58400  0.24900  1.0000
  Dy  Dy3       1.0  0.41600  0.75400  0.74900  1.0000
  Dy  Dy4       1.0  0.75400  0.41600  0.75100  1.0000
  Ge  Ge1       1.0  0.50000  1.00000  0.00000  1.0000
  Ge  Ge2       1.0  1.00000  0.50000  0.50000  1.0000
  Ge  Ge3       1.0  0.36000  0.18200  0.49800  1.0000
  Ge  Ge4       1.0  0.18200  0.36000  0.00247  1.0000
  Ge  Ge5       1.0  0.64000  0.81800  0.50200  1.0000
  Ge  Ge6       1.0  0.81800  0.64000  0.99800  1.0000
  Pt  Pt1       1.0  0.13400  0.13400  0.25000  1.0000
  Pt  Pt2       1.0  0.86600  0.86600  0.75000  1.0000
  Pt  Pt3       1.0  0.52200  0.64000  0.07850  1.0000
  Pt  Pt4       1.0  0.64000  0.52200  0.42200  1.0000
  Pt  Pt5       1.0  0.47800  0.36000  0.92200  1.0000
  Pt  Pt6       1.0  0.36000  0.47800  0.57800  1.0000
  Pt  Pt7       1.0  0.70400  0.91600  0.25700  1.0000
  Pt  Pt8       1.0  0.91600  0.70400  0.24300  1.0000
  Pt  Pt9       1.0  0.29600  0.08400  0.74300  1.0000
  Pt  Pt10      1.0  0.08400  0.29600  0.75700  1.0000
  Pt  Pt11      1.0  0.30700  0.86000  0.42000  1.0000
  Pt  Pt12      1.0  0.86000  0.30700  0.07990  1.0000
  Pt  Pt13      1.0  0.69300  0.14000  0.58000  1.0000
  Pt  Pt14      1.0  0.14000  0.69300  0.92000  1.0000
  Pt  Pt15      1.0  0.20100  0.97800  0.07430  1.0000
  Pt  Pt16      1.0  0.97800  0.20100  0.42600  1.0000
  Pt  Pt17      1.0  0.79900  0.02230  0.92600  1.0000
  Pt  Pt18      1.0  0.02230  0.79900  0.57400  1.0000
