data_image0
_chemical_formula_structural       Ge6Pt18Tb4
_chemical_formula_sum              "Ge6 Pt18 Tb4"
_cell_length_a       7.82915
_cell_length_b       7.82915
_cell_length_c       10.1235
_cell_angle_alpha    67.0419
_cell_angle_beta     112.958
_cell_angle_gamma    119.771

_space_group_name_H-M_alt    "P 1"
_space_group_IT_number       1

loop_
  _space_group_symop_operation_xyz
  'x, y, z'

loop_
  _atom_site_type_symbol
  _atom_site_label
  _atom_site_symmetry_multiplicity
  _atom_site_fract_x
  _atom_site_fract_y
  _atom_site_fract_z
  _atom_site_occupancy
  Ge  Ge1       1.0  0.50000  0.00000  0.00000  1.0000
  Ge  Ge2       1.0  0.00000  0.50000  0.50000  1.0000
  Ge  Ge3       1.0  0.36000  0.18200  0.49700  1.0000
  Ge  Ge4       1.0  0.18200  0.36000  0.00254  1.0000
  Ge  Ge5       1.0  0.64000  0.81800  0.50300  1.0000
  Ge  Ge6       1.0  0.81800  0.64000  0.99700  1.0000
  Pt  Pt1       1.0  0.13400  0.13400  0.25000  1.0000
  Pt  Pt2       1.0  0.86600  0.86600  0.75000  1.0000
  Pt  Pt3       1.0  0.52200  0.64000  0.07890  1.0000
  Pt  Pt4       1.0  0.64000  0.52200  0.42100  1.0000
  Pt  Pt5       1.0  0.47800  0.36000  0.92100  1.0000
  Pt  Pt6       1.0  0.36000  0.47800  0.57900  1.0000
  Pt  Pt7       1.0  0.70500  0.91600  0.25800  1.0000
  Pt  Pt8       1.0  0.91600  0.70500  0.24200  1.0000
  Pt  Pt9       1.0  0.29500  0.08370  0.74200  1.0000
  Pt  Pt10      1.0  0.08370  0.29500  0.75800  1.0000
  Pt  Pt11      1.0  0.30700  0.86000  0.42000  1.0000
  Pt  Pt12      1.0  0.86000  0.30700  0.07980  1.0000
  Pt  Pt13      1.0  0.69300  0.14000  0.58000  1.0000
  Pt  Pt14      1.0  0.14000  0.69300  0.92000  1.0000
  Pt  Pt15      1.0  0.20000  0.97900  0.07270  1.0000
  Pt  Pt16      1.0  0.97900  0.20000  0.42700  1.0000
  Pt  Pt17      1.0  0.80000  0.02110  0.92700  1.0000
  Pt  Pt18      1.0  0.02110  0.80000  0.57300  1.0000
  Tb  Tb1       1.0  0.58500  0.24500  0.25100  1.0000
  Tb  Tb2       1.0  0.24500  0.58500  0.24900  1.0000
  Tb  Tb3       1.0  0.41500  0.75500  0.74900  1.0000
  Tb  Tb4       1.0  0.75500  0.41500  0.75100  1.0000
