data_image0
_chemical_formula_structural       Cs8OTl8
_chemical_formula_sum              "Cs8 O1 Tl8"
_cell_length_a       11.9688
_cell_length_b       11.9689
_cell_length_c       11.9689
_cell_angle_alpha    44.8569
_cell_angle_beta     44.8563
_cell_angle_gamma    44.8569

_space_group_name_H-M_alt    "P 1"
_space_group_IT_number       1

loop_
  _space_group_symop_operation_xyz
  'x, y, z'

loop_
  _atom_site_type_symbol
  _atom_site_label
  _atom_site_symmetry_multiplicity
  _atom_site_fract_x
  _atom_site_fract_y
  _atom_site_fract_z
  _atom_site_occupancy
  Cs  Cs1       1.0  0.14500  0.66900  0.53900  1.0000
  Cs  Cs2       1.0  0.53900  0.14500  0.66900  1.0000
  Cs  Cs3       1.0  0.66900  0.53900  0.14500  1.0000
  Cs  Cs4       1.0  0.85500  0.33100  0.46100  1.0000
  Cs  Cs5       1.0  0.46100  0.85500  0.33100  1.0000
  Cs  Cs6       1.0  0.33100  0.46100  0.85500  1.0000
  Cs  Cs7       1.0  0.67200  0.67200  0.67200  1.0000
  Cs  Cs8       1.0  0.32800  0.32800  0.32800  1.0000
  O   O1        1.0  0.50000  0.50000  0.50000  1.0000
  Tl  Tl1       1.0  0.12100  0.12100  0.12100  1.0000
  Tl  Tl2       1.0  0.87900  0.87900  0.87900  1.0000
  Tl  Tl3       1.0  0.24900  0.82800  0.04300  1.0000
  Tl  Tl4       1.0  0.04300  0.24900  0.82800  1.0000
  Tl  Tl5       1.0  0.82800  0.04300  0.24900  1.0000
  Tl  Tl6       1.0  0.75100  0.17200  0.95700  1.0000
  Tl  Tl7       1.0  0.95700  0.75100  0.17200  1.0000
  Tl  Tl8       1.0  0.17200  0.95700  0.75100  1.0000
