data_image0
_chemical_formula_structural       F12Li6N6O24S12
_chemical_formula_sum              "F12 Li6 N6 O24 S12"
_cell_length_a       7.63941
_cell_length_b       7.6391
_cell_length_c       12.2073
_cell_angle_alpha    89.9996
_cell_angle_beta     90.0013
_cell_angle_gamma    120.038

_space_group_name_H-M_alt    "P 1"
_space_group_IT_number       1

loop_
  _space_group_symop_operation_xyz
  'x, y, z'

loop_
  _atom_site_type_symbol
  _atom_site_label
  _atom_site_symmetry_multiplicity
  _atom_site_fract_x
  _atom_site_fract_y
  _atom_site_fract_z
  _atom_site_occupancy
  F   F1        1.0  0.91100  0.12700  0.36600  1.0000
  F   F2        1.0  0.87300  0.78400  0.36600  1.0000
  F   F3        1.0  0.21600  0.08890  0.36600  1.0000
  F   F4        1.0  0.08920  0.87300  0.63400  1.0000
  F   F5        1.0  0.12700  0.21600  0.63400  1.0000
  F   F6        1.0  0.78400  0.91100  0.63400  1.0000
  F   F7        1.0  0.91100  0.12700  0.13400  1.0000
  F   F8        1.0  0.87300  0.78400  0.13400  1.0000
  F   F9        1.0  0.21600  0.08890  0.13400  1.0000
  F   F10       1.0  0.08920  0.87300  0.86600  1.0000
  F   F11       1.0  0.12700  0.21600  0.86600  1.0000
  F   F12       1.0  0.78400  0.91100  0.86600  1.0000
  Li  Li1       1.0  0.66700  0.33300  0.25000  1.0000
  Li  Li2       1.0  0.33300  0.66700  0.75000  1.0000
  Li  Li3       1.0  0.33300  0.66700  0.96700  1.0000
  Li  Li4       1.0  0.66700  0.33300  0.03310  1.0000
  Li  Li5       1.0  0.33300  0.66700  0.53300  1.0000
  Li  Li6       1.0  0.66700  0.33300  0.46700  1.0000
  N   N1        1.0  0.16600  0.39900  0.25000  1.0000
  N   N2        1.0  0.60100  0.76700  0.25000  1.0000
  N   N3        1.0  0.23300  0.83400  0.25000  1.0000
  N   N4        1.0  0.83400  0.60100  0.75000  1.0000
  N   N5        1.0  0.39900  0.23300  0.75000  1.0000
  N   N6        1.0  0.76700  0.16600  0.75000  1.0000
  O   O1        1.0  0.90300  0.43100  0.13900  1.0000
  O   O2        1.0  0.56800  0.47100  0.13900  1.0000
  O   O3        1.0  0.52900  0.09750  0.13900  1.0000
  O   O4        1.0  0.09740  0.56900  0.86100  1.0000
  O   O5        1.0  0.43200  0.52900  0.86100  1.0000
  O   O6        1.0  0.47100  0.90200  0.86100  1.0000
  O   O7        1.0  0.18700  0.41800  0.05200  1.0000
  O   O8        1.0  0.58100  0.76800  0.05200  1.0000
  O   O9        1.0  0.23200  0.81300  0.05200  1.0000
  O   O10       1.0  0.81300  0.58200  0.94800  1.0000
  O   O11       1.0  0.41900  0.23200  0.94800  1.0000
  O   O12       1.0  0.76800  0.18700  0.94800  1.0000
  O   O13       1.0  0.90300  0.43200  0.36100  1.0000
  O   O14       1.0  0.56800  0.47100  0.36100  1.0000
  O   O15       1.0  0.52900  0.09760  0.36100  1.0000
  O   O16       1.0  0.09740  0.56800  0.63900  1.0000
  O   O17       1.0  0.43200  0.52900  0.63900  1.0000
  O   O18       1.0  0.47100  0.90200  0.63900  1.0000
  O   O19       1.0  0.18700  0.41800  0.44800  1.0000
  O   O20       1.0  0.58100  0.76800  0.44800  1.0000
  O   O21       1.0  0.23200  0.81300  0.44800  1.0000
  O   O22       1.0  0.81300  0.58200  0.55200  1.0000
  O   O23       1.0  0.41900  0.23200  0.55200  1.0000
  O   O24       1.0  0.76800  0.18700  0.55200  1.0000
  S   S1        1.0  0.04810  0.36400  0.14000  1.0000
  S   S2        1.0  0.63600  0.68400  0.14000  1.0000
  S   S3        1.0  0.31600  0.95200  0.14000  1.0000
  S   S4        1.0  0.95200  0.63600  0.86000  1.0000
  S   S5        1.0  0.36400  0.31600  0.86000  1.0000
  S   S6        1.0  0.68400  0.04810  0.86000  1.0000
  S   S7        1.0  0.04800  0.36400  0.36000  1.0000
  S   S8        1.0  0.63600  0.68400  0.36000  1.0000
  S   S9        1.0  0.31600  0.95200  0.36000  1.0000
  S   S10       1.0  0.95200  0.63600  0.64000  1.0000
  S   S11       1.0  0.36400  0.31600  0.64000  1.0000
  S   S12       1.0  0.68400  0.04810  0.64000  1.0000
