data_image0
_chemical_formula_structural       Bi12Cl12Pt
_chemical_formula_sum              "Bi12 Cl12 Pt1"
_cell_length_a       8.96238
_cell_length_b       9.03055
_cell_length_c       9.03802
_cell_angle_alpha    90.0895
_cell_angle_beta     89.3278
_cell_angle_gamma    88.1092

_space_group_name_H-M_alt    "P 1"
_space_group_IT_number       1

loop_
  _space_group_symop_operation_xyz
  'x, y, z'

loop_
  _atom_site_type_symbol
  _atom_site_label
  _atom_site_symmetry_multiplicity
  _atom_site_fract_x
  _atom_site_fract_y
  _atom_site_fract_z
  _atom_site_occupancy
  Bi  Bi1       1.0  0.55900  0.48200  0.25000  1.0000
  Bi  Bi2       1.0  0.44900  0.25200  0.57900  1.0000
  Bi  Bi3       1.0  0.55300  0.74500  0.43800  1.0000
  Bi  Bi4       1.0  0.72500  0.46100  0.55100  1.0000
  Bi  Bi5       1.0  0.28000  0.52900  0.44900  1.0000
  Bi  Bi6       1.0  0.95100  0.05420  0.29800  1.0000
  Bi  Bi7       1.0  0.44600  0.52300  0.75400  1.0000
  Bi  Bi8       1.0  0.70300  0.05160  0.94800  1.0000
  Bi  Bi9       1.0  0.05330  0.29300  0.95800  1.0000
  Bi  Bi10      1.0  0.94900  0.70700  0.04690  1.0000
  Bi  Bi11      1.0  0.29800  0.94900  0.05730  1.0000
  Bi  Bi12      1.0  0.05030  0.94500  0.70700  1.0000
  Cl  Cl1       1.0  0.99100  0.35800  0.25500  1.0000
  Cl  Cl2       1.0  0.74900  0.35800  0.92100  1.0000
  Cl  Cl3       1.0  0.64500  0.07810  0.25300  1.0000
  Cl  Cl4       1.0  0.35100  0.24800  0.03180  1.0000
  Cl  Cl5       1.0  0.25600  0.99500  0.35900  1.0000
  Cl  Cl6       1.0  0.74600  0.00711  0.64500  1.0000
  Cl  Cl7       1.0  0.65200  0.75200  0.97200  1.0000
  Cl  Cl8       1.0  0.25400  0.64200  0.08180  1.0000
  Cl  Cl9       1.0  0.92800  0.75200  0.35700  1.0000
  Cl  Cl10      1.0  0.01450  0.64100  0.75000  1.0000
  Cl  Cl11      1.0  0.35700  0.91900  0.75200  1.0000
  Cl  Cl12      1.0  0.07790  0.24700  0.64700  1.0000
  Pt  Pt1       1.0  0.00078  0.00044  0.00219  1.0000
