data_image0
_chemical_formula_structural       Au4Cd2F24
_chemical_formula_sum              "Au4 Cd2 F24"
_cell_length_a       6.58616
_cell_length_b       6.58616
_cell_length_c       9.18523
_cell_angle_alpha    66.5908
_cell_angle_beta     113.409
_cell_angle_gamma    104.162

_space_group_name_H-M_alt    "P 1"
_space_group_IT_number       1

loop_
  _space_group_symop_operation_xyz
  'x, y, z'

loop_
  _atom_site_type_symbol
  _atom_site_label
  _atom_site_symmetry_multiplicity
  _atom_site_fract_x
  _atom_site_fract_y
  _atom_site_fract_z
  _atom_site_occupancy
  Au  Au1       1.0  0.23000  0.73200  0.64400  1.0000
  Au  Au2       1.0  0.73200  0.23000  0.85600  1.0000
  Au  Au3       1.0  0.77000  0.26800  0.35600  1.0000
  Au  Au4       1.0  0.26800  0.77000  0.14400  1.0000
  Cd  Cd1       1.0  0.75400  0.75400  0.75000  1.0000
  Cd  Cd2       1.0  0.24600  0.24600  0.25000  1.0000
  F   F1        1.0  0.49400  0.78100  0.82900  1.0000
  F   F2        1.0  0.78100  0.49400  0.67100  1.0000
  F   F3        1.0  0.50600  0.21900  0.17100  1.0000
  F   F4        1.0  0.21900  0.50600  0.32900  1.0000
  F   F5        1.0  0.96300  0.70700  0.46200  1.0000
  F   F6        1.0  0.70700  0.96300  0.03850  1.0000
  F   F7        1.0  0.03710  0.29300  0.53800  1.0000
  F   F8        1.0  0.29300  0.03710  0.96200  1.0000
  F   F9        1.0  0.30000  0.03560  0.51100  1.0000
  F   F10       1.0  0.03560  0.30000  0.98900  1.0000
  F   F11       1.0  0.70000  0.96400  0.48900  1.0000
  F   F12       1.0  0.96400  0.70000  0.01090  1.0000
  F   F13       1.0  0.19800  0.43000  0.78300  1.0000
  F   F14       1.0  0.43000  0.19800  0.71700  1.0000
  F   F15       1.0  0.80200  0.57000  0.21700  1.0000
  F   F16       1.0  0.57000  0.80200  0.28300  1.0000
  F   F17       1.0  0.09070  0.85100  0.73700  1.0000
  F   F18       1.0  0.85100  0.09070  0.76300  1.0000
  F   F19       1.0  0.90900  0.14900  0.26300  1.0000
  F   F20       1.0  0.14900  0.90900  0.23700  1.0000
  F   F21       1.0  0.40900  0.63800  0.56500  1.0000
  F   F22       1.0  0.63800  0.40900  0.93500  1.0000
  F   F23       1.0  0.59100  0.36200  0.43500  1.0000
  F   F24       1.0  0.36200  0.59100  0.06460  1.0000
