data_image0
_chemical_formula_structural       O18Se6Sm4
_chemical_formula_sum              "O18 Se6 Sm4"
_cell_length_a       6.86241
_cell_length_b       7.45723
_cell_length_c       8.7676
_cell_angle_alpha    93.4882
_cell_angle_beta     105.43
_cell_angle_gamma    117.534

_space_group_name_H-M_alt    "P 1"
_space_group_IT_number       1

loop_
  _space_group_symop_operation_xyz
  'x, y, z'

loop_
  _atom_site_type_symbol
  _atom_site_label
  _atom_site_symmetry_multiplicity
  _atom_site_fract_x
  _atom_site_fract_y
  _atom_site_fract_z
  _atom_site_occupancy
  O   O1        1.0  0.27200  0.33300  0.61400  1.0000
  O   O2        1.0  0.72800  0.66700  0.38600  1.0000
  O   O3        1.0  0.45800  0.81400  0.38800  1.0000
  O   O4        1.0  0.54200  0.18600  0.61200  1.0000
  O   O5        1.0  0.12800  0.00500  0.36500  1.0000
  O   O6        1.0  0.87200  0.99500  0.63500  1.0000
  O   O7        1.0  0.84900  0.32000  0.41100  1.0000
  O   O8        1.0  0.15100  0.68000  0.58900  1.0000
  O   O9        1.0  0.63900  0.35500  0.14400  1.0000
  O   O10       1.0  0.36100  0.64500  0.85600  1.0000
  O   O11       1.0  0.69200  0.02190  0.15500  1.0000
  O   O12       1.0  0.30800  0.97800  0.84500  1.0000
  O   O13       1.0  0.21800  0.31500  0.95200  1.0000
  O   O14       1.0  0.78200  0.68500  0.04760  1.0000
  O   O15       1.0  0.19000  0.76400  0.09130  1.0000
  O   O16       1.0  0.81000  0.23600  0.90900  1.0000
  O   O17       1.0  0.14700  0.41500  0.21200  1.0000
  O   O18       1.0  0.85300  0.58500  0.78800  1.0000
  Se  Se1       1.0  0.35200  0.23900  0.46900  1.0000
  Se  Se2       1.0  0.64800  0.76100  0.53100  1.0000
  Se  Se3       1.0  0.60100  0.16100  0.25100  1.0000
  Se  Se4       1.0  0.39900  0.83900  0.74900  1.0000
  Se  Se5       1.0  0.00917  0.20300  0.05320  1.0000
  Se  Se6       1.0  0.99100  0.79700  0.94700  1.0000
  Sm  Sm1       1.0  0.03110  0.65300  0.31500  1.0000
  Sm  Sm2       1.0  0.96900  0.34700  0.68500  1.0000
  Sm  Sm3       1.0  0.47700  0.66500  0.13800  1.0000
  Sm  Sm4       1.0  0.52300  0.33500  0.86200  1.0000
