data_image0
_chemical_formula_structural       Al4La17N33Si9
_chemical_formula_sum              "Al4 La17 N33 Si9"
_cell_length_a       10.834
_cell_length_b       10.834
_cell_length_c       10.834
_cell_angle_alpha    60
_cell_angle_beta     60
_cell_angle_gamma    60

_space_group_name_H-M_alt    "P 1"
_space_group_IT_number       1

loop_
  _space_group_symop_operation_xyz
  'x, y, z'

loop_
  _atom_site_type_symbol
  _atom_site_label
  _atom_site_symmetry_multiplicity
  _atom_site_fract_x
  _atom_site_fract_y
  _atom_site_fract_z
  _atom_site_occupancy
  Al  Al1       1.0  0.17900  0.46300  0.17900  1.0000
  Al  Al2       1.0  0.46300  0.17900  0.17900  1.0000
  Al  Al3       1.0  0.17900  0.17900  0.46300  1.0000
  Al  Al4       1.0  0.17900  0.17900  0.17900  1.0000
  La  La1       1.0  0.75000  0.75000  0.75000  1.0000
  La  La2       1.0  0.79200  0.20800  0.79200  1.0000
  La  La3       1.0  0.20800  0.79200  0.20800  1.0000
  La  La4       1.0  0.79200  0.79200  0.20800  1.0000
  La  La5       1.0  0.20800  0.79200  0.79200  1.0000
  La  La6       1.0  0.79200  0.20800  0.20800  1.0000
  La  La7       1.0  0.20800  0.20800  0.79200  1.0000
  La  La8       1.0  0.50800  0.50800  0.99200  1.0000
  La  La9       1.0  0.99200  0.99200  0.50800  1.0000
  La  La10      1.0  0.99200  0.50800  0.50800  1.0000
  La  La11      1.0  0.50800  0.99200  0.50800  1.0000
  La  La12      1.0  0.50800  0.99200  0.99200  1.0000
  La  La13      1.0  0.99200  0.50800  0.99200  1.0000
  La  La14      1.0  0.58700  0.23800  0.58700  1.0000
  La  La15      1.0  0.23800  0.58700  0.58700  1.0000
  La  La16      1.0  0.58700  0.58700  0.23800  1.0000
  La  La17      1.0  0.58700  0.58700  0.58700  1.0000
  N   N1        1.0  0.93500  0.19600  0.93500  1.0000
  N   N2        1.0  0.19600  0.93500  0.93500  1.0000
  N   N3        1.0  0.93500  0.93500  0.19600  1.0000
  N   N4        1.0  0.93500  0.93500  0.93500  1.0000
  N   N5        1.0  0.25000  0.25000  0.25000  1.0000
  N   N6        1.0  0.75800  0.46500  0.75800  1.0000
  N   N7        1.0  0.46500  0.75800  0.01910  1.0000
  N   N8        1.0  0.01910  0.75800  0.46500  1.0000
  N   N9        1.0  0.75800  0.01910  0.75800  1.0000
  N   N10       1.0  0.75800  0.75800  0.46500  1.0000
  N   N11       1.0  0.46500  0.75800  0.75800  1.0000
  N   N12       1.0  0.75800  0.75800  0.01910  1.0000
  N   N13       1.0  0.75800  0.01910  0.46500  1.0000
  N   N14       1.0  0.01910  0.46500  0.75800  1.0000
  N   N15       1.0  0.75800  0.46500  0.01910  1.0000
  N   N16       1.0  0.46500  0.01910  0.75800  1.0000
  N   N17       1.0  0.01910  0.75800  0.75800  1.0000
  N   N18       1.0  0.96700  0.25500  0.52400  1.0000
  N   N19       1.0  0.25500  0.96700  0.25500  1.0000
  N   N20       1.0  0.25500  0.52400  0.25500  1.0000
  N   N21       1.0  0.52400  0.25500  0.96700  1.0000
  N   N22       1.0  0.52400  0.96700  0.25500  1.0000
  N   N23       1.0  0.25500  0.52400  0.96700  1.0000
  N   N24       1.0  0.96700  0.52400  0.25500  1.0000
  N   N25       1.0  0.96700  0.25500  0.25500  1.0000
  N   N26       1.0  0.25500  0.25500  0.96700  1.0000
  N   N27       1.0  0.52400  0.25500  0.25500  1.0000
  N   N28       1.0  0.25500  0.25500  0.52400  1.0000
  N   N29       1.0  0.25500  0.96700  0.52400  1.0000
  N   N30       1.0  0.43100  0.43100  0.70800  1.0000
  N   N31       1.0  0.43100  0.43100  0.43100  1.0000
  N   N32       1.0  0.43100  0.70800  0.43100  1.0000
  N   N33       1.0  0.70800  0.43100  0.43100  1.0000
  Si  Si1       1.0  0.86700  0.40000  0.86700  1.0000
  Si  Si2       1.0  0.40000  0.86700  0.86700  1.0000
  Si  Si3       1.0  0.86700  0.86700  0.40000  1.0000
  Si  Si4       1.0  0.86700  0.86700  0.86700  1.0000
  Si  Si5       1.0  0.36600  0.36600  0.90300  1.0000
  Si  Si6       1.0  0.36600  0.36600  0.36600  1.0000
  Si  Si7       1.0  0.36600  0.90300  0.36600  1.0000
  Si  Si8       1.0  0.90300  0.36600  0.36600  1.0000
  Si  Si9       1.0  0.00000  0.00000  0.00000  1.0000
