data_image0
_chemical_formula_structural       B3H3O14Zn8
_chemical_formula_sum              "B3 H3 O14 Zn8"
_cell_length_a       7.47847
_cell_length_b       7.47963
_cell_length_c       7.48147
_cell_angle_alpha    64.1282
_cell_angle_beta     64.1271
_cell_angle_gamma    64.1303

_space_group_name_H-M_alt    "P 1"
_space_group_IT_number       1

loop_
  _space_group_symop_operation_xyz
  'x, y, z'

loop_
  _atom_site_type_symbol
  _atom_site_label
  _atom_site_symmetry_multiplicity
  _atom_site_fract_x
  _atom_site_fract_y
  _atom_site_fract_z
  _atom_site_occupancy
  B   B1        1.0  0.49800  0.19700  0.80300  1.0000
  B   B2        1.0  0.80300  0.49800  0.19700  1.0000
  B   B3        1.0  0.19700  0.80300  0.49800  1.0000
  H   H1        1.0  0.09530  0.83300  0.09740  1.0000
  H   H2        1.0  0.09710  0.09540  0.83300  1.0000
  H   H3        1.0  0.83300  0.09770  0.09600  1.0000
  O   O1        1.0  0.70100  0.70100  0.70200  1.0000
  O   O2        1.0  0.29800  0.29800  0.29800  1.0000
  O   O3        1.0  0.21800  0.78500  0.98600  1.0000
  O   O4        1.0  0.98600  0.21800  0.78500  1.0000
  O   O5        1.0  0.78500  0.98600  0.21800  1.0000
  O   O6        1.0  0.46200  0.38600  0.82200  1.0000
  O   O7        1.0  0.82200  0.46200  0.38600  1.0000
  O   O8        1.0  0.38600  0.82200  0.46200  1.0000
  O   O9        1.0  0.61400  0.53800  0.17600  1.0000
  O   O10       1.0  0.53800  0.17600  0.61400  1.0000
  O   O11       1.0  0.17600  0.61400  0.53800  1.0000
  O   O12       1.0  0.49200  0.02570  0.97800  1.0000
  O   O13       1.0  0.97800  0.49100  0.02580  1.0000
  O   O14       1.0  0.02580  0.97800  0.49100  1.0000
  Zn  Zn1       1.0  0.49800  0.77300  0.95600  1.0000
  Zn  Zn2       1.0  0.95600  0.49800  0.77300  1.0000
  Zn  Zn3       1.0  0.77300  0.95600  0.49800  1.0000
  Zn  Zn4       1.0  0.22700  0.49800  0.04230  1.0000
  Zn  Zn5       1.0  0.49800  0.04230  0.22700  1.0000
  Zn  Zn6       1.0  0.04250  0.22700  0.49800  1.0000
  Zn  Zn7       1.0  0.59100  0.59100  0.59100  1.0000
  Zn  Zn8       1.0  0.40800  0.40800  0.40900  1.0000
