data_image0
_chemical_formula_structural       Co4La16Mg4
_chemical_formula_sum              "Co4 La16 Mg4"
_cell_length_a       9.99244
_cell_length_b       9.99244
_cell_length_c       9.99244
_cell_angle_alpha    60
_cell_angle_beta     60
_cell_angle_gamma    60

_space_group_name_H-M_alt    "P 1"
_space_group_IT_number       1

loop_
  _space_group_symop_operation_xyz
  'x, y, z'

loop_
  _atom_site_type_symbol
  _atom_site_label
  _atom_site_symmetry_multiplicity
  _atom_site_fract_x
  _atom_site_fract_y
  _atom_site_fract_z
  _atom_site_occupancy
  Co  Co1       1.0  0.14000  0.14000  0.14000  1.0000
  Co  Co2       1.0  0.14000  0.14000  0.58000  1.0000
  Co  Co3       1.0  0.58000  0.14000  0.14000  1.0000
  Co  Co4       1.0  0.14000  0.58000  0.14000  1.0000
  La  La1       1.0  0.94000  0.56000  0.56000  1.0000
  La  La2       1.0  0.56000  0.94000  0.94000  1.0000
  La  La3       1.0  0.56000  0.94000  0.56000  1.0000
  La  La4       1.0  0.56000  0.56000  0.94000  1.0000
  La  La5       1.0  0.94000  0.56000  0.94000  1.0000
  La  La6       1.0  0.94000  0.94000  0.56000  1.0000
  La  La7       1.0  0.81200  0.18800  0.18800  1.0000
  La  La8       1.0  0.18800  0.81200  0.81200  1.0000
  La  La9       1.0  0.18800  0.81200  0.18800  1.0000
  La  La10      1.0  0.18800  0.18800  0.81200  1.0000
  La  La11      1.0  0.81200  0.18800  0.81200  1.0000
  La  La12      1.0  0.81200  0.81200  0.18800  1.0000
  La  La13      1.0  0.34400  0.34400  0.34400  1.0000
  La  La14      1.0  0.34400  0.34400  0.96900  1.0000
  La  La15      1.0  0.96900  0.34400  0.34400  1.0000
  La  La16      1.0  0.34400  0.96900  0.34400  1.0000
  Mg  Mg1       1.0  0.57800  0.57800  0.57800  1.0000
  Mg  Mg2       1.0  0.57800  0.57800  0.26600  1.0000
  Mg  Mg3       1.0  0.26600  0.57800  0.57800  1.0000
  Mg  Mg4       1.0  0.57800  0.26600  0.57800  1.0000
