data_image0
_chemical_formula_structural       Cd4Co4Tb16
_chemical_formula_sum              "Cd4 Co4 Tb16"
_cell_length_a       9.45345
_cell_length_b       9.45345
_cell_length_c       9.45345
_cell_angle_alpha    60
_cell_angle_beta     60
_cell_angle_gamma    60

_space_group_name_H-M_alt    "P 1"
_space_group_IT_number       1

loop_
  _space_group_symop_operation_xyz
  'x, y, z'

loop_
  _atom_site_type_symbol
  _atom_site_label
  _atom_site_symmetry_multiplicity
  _atom_site_fract_x
  _atom_site_fract_y
  _atom_site_fract_z
  _atom_site_occupancy
  Cd  Cd1       1.0  0.58000  0.58000  0.58000  1.0000
  Cd  Cd2       1.0  0.58000  0.58000  0.25900  1.0000
  Cd  Cd3       1.0  0.25900  0.58000  0.58000  1.0000
  Cd  Cd4       1.0  0.58000  0.25900  0.58000  1.0000
  Co  Co1       1.0  0.14100  0.14100  0.14100  1.0000
  Co  Co2       1.0  0.14100  0.14100  0.57700  1.0000
  Co  Co3       1.0  0.57700  0.14100  0.14100  1.0000
  Co  Co4       1.0  0.14100  0.57700  0.14100  1.0000
  Tb  Tb1       1.0  0.93800  0.56200  0.56200  1.0000
  Tb  Tb2       1.0  0.56200  0.93800  0.93800  1.0000
  Tb  Tb3       1.0  0.56200  0.93800  0.56200  1.0000
  Tb  Tb4       1.0  0.56200  0.56200  0.93800  1.0000
  Tb  Tb5       1.0  0.93800  0.56200  0.93800  1.0000
  Tb  Tb6       1.0  0.93800  0.93800  0.56200  1.0000
  Tb  Tb7       1.0  0.34700  0.34700  0.34700  1.0000
  Tb  Tb8       1.0  0.34700  0.34700  0.96000  1.0000
  Tb  Tb9       1.0  0.96000  0.34700  0.34700  1.0000
  Tb  Tb10      1.0  0.34700  0.96000  0.34700  1.0000
  Tb  Tb11      1.0  0.81100  0.18900  0.18900  1.0000
  Tb  Tb12      1.0  0.18900  0.81100  0.81100  1.0000
  Tb  Tb13      1.0  0.18900  0.81100  0.18900  1.0000
  Tb  Tb14      1.0  0.18900  0.18900  0.81100  1.0000
  Tb  Tb15      1.0  0.81100  0.18900  0.81100  1.0000
  Tb  Tb16      1.0  0.81100  0.81100  0.18900  1.0000
