data_image0
_chemical_formula_structural       Cd4Ho16Rh4
_chemical_formula_sum              "Cd4 Ho16 Rh4"
_cell_length_a       9.5385
_cell_length_b       9.5385
_cell_length_c       9.5385
_cell_angle_alpha    60
_cell_angle_beta     60
_cell_angle_gamma    60

_space_group_name_H-M_alt    "P 1"
_space_group_IT_number       1

loop_
  _space_group_symop_operation_xyz
  'x, y, z'

loop_
  _atom_site_type_symbol
  _atom_site_label
  _atom_site_symmetry_multiplicity
  _atom_site_fract_x
  _atom_site_fract_y
  _atom_site_fract_z
  _atom_site_occupancy
  Cd  Cd1       1.0  0.41800  0.41800  0.41800  1.0000
  Cd  Cd2       1.0  0.41800  0.41800  0.74500  1.0000
  Cd  Cd3       1.0  0.74500  0.41800  0.41800  1.0000
  Cd  Cd4       1.0  0.41800  0.74500  0.41800  1.0000
  Ho  Ho1       1.0  0.18900  0.81100  0.81100  1.0000
  Ho  Ho2       1.0  0.81100  0.18900  0.18900  1.0000
  Ho  Ho3       1.0  0.81100  0.18900  0.81100  1.0000
  Ho  Ho4       1.0  0.81100  0.81100  0.18900  1.0000
  Ho  Ho5       1.0  0.18900  0.81100  0.18900  1.0000
  Ho  Ho6       1.0  0.18900  0.18900  0.81100  1.0000
  Ho  Ho7       1.0  0.65000  0.65000  0.65000  1.0000
  Ho  Ho8       1.0  0.65000  0.65000  0.05110  1.0000
  Ho  Ho9       1.0  0.05110  0.65000  0.65000  1.0000
  Ho  Ho10      1.0  0.65000  0.05110  0.65000  1.0000
  Ho  Ho11      1.0  0.06370  0.43600  0.43600  1.0000
  Ho  Ho12      1.0  0.43600  0.06370  0.06370  1.0000
  Ho  Ho13      1.0  0.43600  0.06370  0.43600  1.0000
  Ho  Ho14      1.0  0.43600  0.43600  0.06370  1.0000
  Ho  Ho15      1.0  0.06370  0.43600  0.06370  1.0000
  Ho  Ho16      1.0  0.06370  0.06370  0.43600  1.0000
  Rh  Rh1       1.0  0.85700  0.85700  0.85700  1.0000
  Rh  Rh2       1.0  0.85700  0.85700  0.42800  1.0000
  Rh  Rh3       1.0  0.42800  0.85700  0.85700  1.0000
  Rh  Rh4       1.0  0.85700  0.42800  0.85700  1.0000
