data_image0
_chemical_formula_structural       Dy16In4Rh4
_chemical_formula_sum              "Dy16 In4 Rh4"
_cell_length_a       9.59832
_cell_length_b       9.59832
_cell_length_c       9.59832
_cell_angle_alpha    60
_cell_angle_beta     60
_cell_angle_gamma    60

_space_group_name_H-M_alt    "P 1"
_space_group_IT_number       1

loop_
  _space_group_symop_operation_xyz
  'x, y, z'

loop_
  _atom_site_type_symbol
  _atom_site_label
  _atom_site_symmetry_multiplicity
  _atom_site_fract_x
  _atom_site_fract_y
  _atom_site_fract_z
  _atom_site_occupancy
  Dy  Dy1       1.0  0.93800  0.56200  0.56200  1.0000
  Dy  Dy2       1.0  0.56200  0.93800  0.93800  1.0000
  Dy  Dy3       1.0  0.56200  0.93800  0.56200  1.0000
  Dy  Dy4       1.0  0.56200  0.56200  0.93800  1.0000
  Dy  Dy5       1.0  0.93800  0.56200  0.93800  1.0000
  Dy  Dy6       1.0  0.93800  0.93800  0.56200  1.0000
  Dy  Dy7       1.0  0.81100  0.18900  0.18900  1.0000
  Dy  Dy8       1.0  0.18900  0.81100  0.81100  1.0000
  Dy  Dy9       1.0  0.18900  0.81100  0.18900  1.0000
  Dy  Dy10      1.0  0.18900  0.18900  0.81100  1.0000
  Dy  Dy11      1.0  0.81100  0.18900  0.81100  1.0000
  Dy  Dy12      1.0  0.81100  0.81100  0.18900  1.0000
  Dy  Dy13      1.0  0.35000  0.35000  0.35000  1.0000
  Dy  Dy14      1.0  0.35000  0.35000  0.94900  1.0000
  Dy  Dy15      1.0  0.94900  0.35000  0.35000  1.0000
  Dy  Dy16      1.0  0.35000  0.94900  0.35000  1.0000
  In  In1       1.0  0.58300  0.58300  0.58300  1.0000
  In  In2       1.0  0.58300  0.58300  0.25100  1.0000
  In  In3       1.0  0.25100  0.58300  0.58300  1.0000
  In  In4       1.0  0.58300  0.25100  0.58300  1.0000
  Rh  Rh1       1.0  0.14300  0.14300  0.14300  1.0000
  Rh  Rh2       1.0  0.14300  0.14300  0.57100  1.0000
  Rh  Rh3       1.0  0.57100  0.14300  0.14300  1.0000
  Rh  Rh4       1.0  0.14300  0.57100  0.14300  1.0000
