data_image0
_chemical_formula_structural       Er16In4Rh4
_chemical_formula_sum              "Er16 In4 Rh4"
_cell_length_a       9.51782
_cell_length_b       9.51782
_cell_length_c       9.51782
_cell_angle_alpha    60
_cell_angle_beta     60
_cell_angle_gamma    60

_space_group_name_H-M_alt    "P 1"
_space_group_IT_number       1

loop_
  _space_group_symop_operation_xyz
  'x, y, z'

loop_
  _atom_site_type_symbol
  _atom_site_label
  _atom_site_symmetry_multiplicity
  _atom_site_fract_x
  _atom_site_fract_y
  _atom_site_fract_z
  _atom_site_occupancy
  Er  Er1       1.0  0.06200  0.43800  0.43800  1.0000
  Er  Er2       1.0  0.43800  0.06200  0.06200  1.0000
  Er  Er3       1.0  0.43800  0.06200  0.43800  1.0000
  Er  Er4       1.0  0.43800  0.43800  0.06200  1.0000
  Er  Er5       1.0  0.06200  0.43800  0.06200  1.0000
  Er  Er6       1.0  0.06200  0.06200  0.43800  1.0000
  Er  Er7       1.0  0.18900  0.81100  0.81100  1.0000
  Er  Er8       1.0  0.81100  0.18900  0.18900  1.0000
  Er  Er9       1.0  0.81100  0.18900  0.81100  1.0000
  Er  Er10      1.0  0.81100  0.81100  0.18900  1.0000
  Er  Er11      1.0  0.18900  0.81100  0.18900  1.0000
  Er  Er12      1.0  0.18900  0.18900  0.81100  1.0000
  Er  Er13      1.0  0.64900  0.64900  0.64900  1.0000
  Er  Er14      1.0  0.64900  0.64900  0.05220  1.0000
  Er  Er15      1.0  0.05220  0.64900  0.64900  1.0000
  Er  Er16      1.0  0.64900  0.05220  0.64900  1.0000
  In  In1       1.0  0.41700  0.41700  0.41700  1.0000
  In  In2       1.0  0.41700  0.41700  0.75000  1.0000
  In  In3       1.0  0.75000  0.41700  0.41700  1.0000
  In  In4       1.0  0.41700  0.75000  0.41700  1.0000
  Rh  Rh1       1.0  0.85700  0.85700  0.85700  1.0000
  Rh  Rh2       1.0  0.85700  0.85700  0.43000  1.0000
  Rh  Rh3       1.0  0.43000  0.85700  0.85700  1.0000
  Rh  Rh4       1.0  0.85700  0.43000  0.85700  1.0000
