data_image0
_chemical_formula_structural       C8Cl4F8H4O4S4
_chemical_formula_sum              "C8 Cl4 F8 H4 O4 S4"
_cell_length_a       8.56487
_cell_length_b       8.56487
_cell_length_c       10.0697
_cell_angle_alpha    66.8656
_cell_angle_beta     113.134
_cell_angle_gamma    143.677

_space_group_name_H-M_alt    "P 1"
_space_group_IT_number       1

loop_
  _space_group_symop_operation_xyz
  'x, y, z'

loop_
  _atom_site_type_symbol
  _atom_site_label
  _atom_site_symmetry_multiplicity
  _atom_site_fract_x
  _atom_site_fract_y
  _atom_site_fract_z
  _atom_site_occupancy
  C   C1        1.0  0.72400  0.97600  0.27200  1.0000
  C   C2        1.0  0.97600  0.72400  0.22800  1.0000
  C   C3        1.0  0.27600  0.02410  0.72800  1.0000
  C   C4        1.0  0.02410  0.27600  0.77200  1.0000
  C   C5        1.0  0.61200  0.97000  0.36400  1.0000
  C   C6        1.0  0.97000  0.61200  0.13600  1.0000
  C   C7        1.0  0.38800  0.02990  0.63600  1.0000
  C   C8        1.0  0.02990  0.38800  0.86400  1.0000
  Cl  Cl1       1.0  0.05780  0.18500  0.34100  1.0000
  Cl  Cl2       1.0  0.18500  0.05780  0.15900  1.0000
  Cl  Cl3       1.0  0.94200  0.81500  0.65900  1.0000
  Cl  Cl4       1.0  0.81500  0.94200  0.84100  1.0000
  F   F1        1.0  0.59000  0.72600  0.28200  1.0000
  F   F2        1.0  0.72600  0.59000  0.21800  1.0000
  F   F3        1.0  0.41000  0.27400  0.71800  1.0000
  F   F4        1.0  0.27400  0.41000  0.78200  1.0000
  F   F5        1.0  0.69900  0.06050  0.12900  1.0000
  F   F6        1.0  0.06050  0.69900  0.37100  1.0000
  F   F7        1.0  0.30100  0.93900  0.87100  1.0000
  F   F8        1.0  0.93900  0.30100  0.62900  1.0000
  H   H1        1.0  0.42800  0.79500  0.56700  1.0000
  H   H2        1.0  0.79500  0.42800  0.93300  1.0000
  H   H3        1.0  0.57200  0.20500  0.43300  1.0000
  H   H4        1.0  0.20500  0.57200  0.06680  1.0000
  O   O1        1.0  0.65200  0.15300  0.33600  1.0000
  O   O2        1.0  0.15300  0.65200  0.16400  1.0000
  O   O3        1.0  0.34800  0.84700  0.66400  1.0000
  O   O4        1.0  0.84700  0.34800  0.83600  1.0000
  S   S1        1.0  0.46100  0.70800  0.50200  1.0000
  S   S2        1.0  0.70800  0.46100  0.99800  1.0000
  S   S3        1.0  0.53900  0.29200  0.49800  1.0000
  S   S4        1.0  0.29200  0.53900  0.00244  1.0000
