data_image0
_chemical_formula_structural       B12H72Li4N20
_chemical_formula_sum              "B12 H72 Li4 N20"
_cell_length_a       6.87023
_cell_length_b       10.7724
_cell_length_c       9.75674
_cell_angle_alpha    90
_cell_angle_beta     95.812
_cell_angle_gamma    90

_space_group_name_H-M_alt    "P 1"
_space_group_IT_number       1

loop_
  _space_group_symop_operation_xyz
  'x, y, z'

loop_
  _atom_site_type_symbol
  _atom_site_label
  _atom_site_symmetry_multiplicity
  _atom_site_fract_x
  _atom_site_fract_y
  _atom_site_fract_z
  _atom_site_occupancy
  B   B1        1.0  0.90100  0.01230  0.09530  1.0000
  B   B2        1.0  0.09940  0.51200  0.40500  1.0000
  B   B3        1.0  0.09940  0.98800  0.90500  1.0000
  B   B4        1.0  0.90100  0.48800  0.59500  1.0000
  B   B5        1.0  0.01080  0.88900  0.02230  1.0000
  B   B6        1.0  0.98900  0.38900  0.47800  1.0000
  B   B7        1.0  0.98900  0.11100  0.97800  1.0000
  B   B8        1.0  0.01080  0.61100  0.52200  1.0000
  B   B9        1.0  0.14600  0.01620  0.07810  1.0000
  B   B10       1.0  0.85400  0.51600  0.42200  1.0000
  B   B11       1.0  0.85400  0.98400  0.92200  1.0000
  B   B12       1.0  0.14600  0.48400  0.57800  1.0000
  H   H1        1.0  0.00717  0.57900  0.05680  1.0000
  H   H2        1.0  0.99300  0.07900  0.44300  1.0000
  H   H3        1.0  0.99300  0.42100  0.94300  1.0000
  H   H4        1.0  0.00717  0.92100  0.55700  1.0000
  H   H5        1.0  0.75700  0.85100  0.38800  1.0000
  H   H6        1.0  0.24300  0.35100  0.11200  1.0000
  H   H7        1.0  0.24300  0.14900  0.61200  1.0000
  H   H8        1.0  0.75700  0.64900  0.88800  1.0000
  H   H9        1.0  0.89300  0.54100  0.19000  1.0000
  H   H10       1.0  0.10700  0.04090  0.31000  1.0000
  H   H11       1.0  0.10700  0.45900  0.81000  1.0000
  H   H12       1.0  0.89300  0.95900  0.69000  1.0000
  H   H13       1.0  0.50500  0.77400  0.94500  1.0000
  H   H14       1.0  0.49500  0.27400  0.55500  1.0000
  H   H15       1.0  0.49500  0.22600  0.05490  1.0000
  H   H16       1.0  0.50500  0.72600  0.44500  1.0000
  H   H17       1.0  0.37900  0.88300  0.01100  1.0000
  H   H18       1.0  0.62100  0.38300  0.48900  1.0000
  H   H19       1.0  0.62100  0.11700  0.98900  1.0000
  H   H20       1.0  0.37900  0.61700  0.51100  1.0000
  H   H21       1.0  0.45200  0.49800  0.22700  1.0000
  H   H22       1.0  0.54800  0.99800  0.27300  1.0000
  H   H23       1.0  0.54800  0.50200  0.77300  1.0000
  H   H24       1.0  0.45200  0.00191  0.72700  1.0000
  H   H25       1.0  0.56900  0.54700  0.09940  1.0000
  H   H26       1.0  0.43100  0.04680  0.40100  1.0000
  H   H27       1.0  0.43100  0.45300  0.90100  1.0000
  H   H28       1.0  0.56900  0.95300  0.59900  1.0000
  H   H29       1.0  0.83100  0.66600  0.10100  1.0000
  H   H30       1.0  0.16900  0.16600  0.39900  1.0000
  H   H31       1.0  0.16900  0.33400  0.89900  1.0000
  H   H32       1.0  0.83100  0.83400  0.60100  1.0000
  H   H33       1.0  0.16300  0.84100  0.23100  1.0000
  H   H34       1.0  0.83700  0.34100  0.26900  1.0000
  H   H35       1.0  0.83700  0.15900  0.76900  1.0000
  H   H36       1.0  0.16300  0.65900  0.73100  1.0000
  H   H37       1.0  0.82100  0.83700  0.23300  1.0000
  H   H38       1.0  0.17900  0.33700  0.26700  1.0000
  H   H39       1.0  0.17900  0.16300  0.76700  1.0000
  H   H40       1.0  0.82100  0.66300  0.73300  1.0000
  H   H41       1.0  0.33000  0.53200  0.07890  1.0000
  H   H42       1.0  0.67000  0.03240  0.42100  1.0000
  H   H43       1.0  0.67000  0.46800  0.92100  1.0000
  H   H44       1.0  0.33000  0.96800  0.57900  1.0000
  H   H45       1.0  0.29100  0.03020  0.15400  1.0000
  H   H46       1.0  0.70900  0.53000  0.34600  1.0000
  H   H47       1.0  0.70900  0.97000  0.84600  1.0000
  H   H48       1.0  0.29100  0.47000  0.65400  1.0000
  H   H49       1.0  0.02970  0.78100  0.04470  1.0000
  H   H50       1.0  0.97000  0.28100  0.45500  1.0000
  H   H51       1.0  0.97000  0.21900  0.95500  1.0000
  H   H52       1.0  0.02970  0.71900  0.54500  1.0000
  H   H53       1.0  0.80300  0.02690  0.18800  1.0000
  H   H54       1.0  0.19700  0.52700  0.31200  1.0000
  H   H55       1.0  0.19700  0.97300  0.81200  1.0000
  H   H56       1.0  0.80300  0.47300  0.68800  1.0000
  H   H57       1.0  0.83200  0.71600  0.34000  1.0000
  H   H58       1.0  0.16800  0.21600  0.16000  1.0000
  H   H59       1.0  0.16800  0.28400  0.66000  1.0000
  H   H60       1.0  0.83200  0.78400  0.84000  1.0000
  H   H61       1.0  0.25500  0.85900  0.39100  1.0000
  H   H62       1.0  0.74500  0.35900  0.10900  1.0000
  H   H63       1.0  0.74500  0.14100  0.60900  1.0000
  H   H64       1.0  0.25500  0.64100  0.89100  1.0000
  H   H65       1.0  0.17500  0.72200  0.33900  1.0000
  H   H66       1.0  0.82500  0.22200  0.16100  1.0000
  H   H67       1.0  0.82500  0.27800  0.66100  1.0000
  H   H68       1.0  0.17500  0.77800  0.83900  1.0000
  H   H69       1.0  0.62000  0.88700  0.03020  1.0000
  H   H70       1.0  0.38000  0.38700  0.47000  1.0000
  H   H71       1.0  0.38000  0.11300  0.97000  1.0000
  H   H72       1.0  0.62000  0.61300  0.53000  1.0000
  Li  Li1       1.0  0.47900  0.74200  0.20900  1.0000
  Li  Li2       1.0  0.52100  0.24200  0.29100  1.0000
  Li  Li3       1.0  0.52100  0.25800  0.79100  1.0000
  Li  Li4       1.0  0.47900  0.75800  0.70900  1.0000
  N   N1        1.0  0.74900  0.79200  0.30500  1.0000
  N   N2        1.0  0.25100  0.29200  0.19500  1.0000
  N   N3        1.0  0.25100  0.20800  0.69500  1.0000
  N   N4        1.0  0.74900  0.70800  0.80500  1.0000
  N   N5        1.0  0.24900  0.79800  0.31000  1.0000
  N   N6        1.0  0.75100  0.29800  0.19000  1.0000
  N   N7        1.0  0.75100  0.20200  0.69000  1.0000
  N   N8        1.0  0.24900  0.70200  0.81000  1.0000
  N   N9        1.0  0.50100  0.82900  0.03080  1.0000
  N   N10       1.0  0.49900  0.32900  0.46900  1.0000
  N   N11       1.0  0.49900  0.17100  0.96900  1.0000
  N   N12       1.0  0.50100  0.67100  0.53100  1.0000
  N   N13       1.0  0.87000  0.57400  0.09010  1.0000
  N   N14       1.0  0.13000  0.07430  0.41000  1.0000
  N   N15       1.0  0.13000  0.42600  0.91000  1.0000
  N   N16       1.0  0.87000  0.92600  0.59000  1.0000
  N   N17       1.0  0.44500  0.56100  0.14800  1.0000
  N   N18       1.0  0.55500  0.06070  0.35200  1.0000
  N   N19       1.0  0.55500  0.43900  0.85200  1.0000
  N   N20       1.0  0.44500  0.93900  0.64800  1.0000
