data_image0
_chemical_formula_structural       Al4Cl16Ni2
_chemical_formula_sum              "Al4 Cl16 Ni2"
_cell_length_a       9.17097
_cell_length_b       8.93025
_cell_length_c       9.17097
_cell_angle_alpha    95.8452
_cell_angle_beta     133.373
_cell_angle_gamma    102.701

_space_group_name_H-M_alt    "P 1"
_space_group_IT_number       1

loop_
  _space_group_symop_operation_xyz
  'x, y, z'

loop_
  _atom_site_type_symbol
  _atom_site_label
  _atom_site_symmetry_multiplicity
  _atom_site_fract_x
  _atom_site_fract_y
  _atom_site_fract_z
  _atom_site_occupancy
  Al  Al1       1.0  0.31400  0.14300  0.34600  1.0000
  Al  Al2       1.0  0.70300  0.35700  0.17100  1.0000
  Al  Al3       1.0  0.68600  0.85700  0.65400  1.0000
  Al  Al4       1.0  0.29700  0.64300  0.82900  1.0000
  Cl  Cl1       1.0  0.14000  0.29000  0.16800  1.0000
  Cl  Cl2       1.0  0.37700  0.21000  0.84900  1.0000
  Cl  Cl3       1.0  0.86000  0.71000  0.83200  1.0000
  Cl  Cl4       1.0  0.62300  0.79000  0.15100  1.0000
  Cl  Cl5       1.0  0.61600  0.27600  0.66700  1.0000
  Cl  Cl6       1.0  0.89100  0.22400  0.34000  1.0000
  Cl  Cl7       1.0  0.38400  0.72400  0.33300  1.0000
  Cl  Cl8       1.0  0.10900  0.77600  0.66000  1.0000
  Cl  Cl9       1.0  0.11700  0.95200  0.34200  1.0000
  Cl  Cl10      1.0  0.89000  0.54800  0.16500  1.0000
  Cl  Cl11      1.0  0.88300  0.04810  0.65800  1.0000
  Cl  Cl12      1.0  0.11000  0.45200  0.83500  1.0000
  Cl  Cl13      1.0  0.35000  0.04530  0.14900  1.0000
  Cl  Cl14      1.0  0.60400  0.45500  0.30500  1.0000
  Cl  Cl15      1.0  0.65000  0.95500  0.85100  1.0000
  Cl  Cl16      1.0  0.39600  0.54500  0.69500  1.0000
  Ni  Ni1       1.0  0.24000  0.25000  0.99000  1.0000
  Ni  Ni2       1.0  0.76000  0.75000  0.00957  1.0000
