data_image0
_chemical_formula_structural       Ge2H8K8O4Te8
_chemical_formula_sum              "Ge2 H8 K8 O4 Te8"
_cell_length_a       10.3537
_cell_length_b       10.3537
_cell_length_c       13.7829
_cell_angle_alpha    52.7183
_cell_angle_beta     127.282
_cell_angle_gamma    138.368

_space_group_name_H-M_alt    "P 1"
_space_group_IT_number       1

loop_
  _space_group_symop_operation_xyz
  'x, y, z'

loop_
  _atom_site_type_symbol
  _atom_site_label
  _atom_site_symmetry_multiplicity
  _atom_site_fract_x
  _atom_site_fract_y
  _atom_site_fract_z
  _atom_site_occupancy
  Ge  Ge1       1.0  0.65000  0.65000  0.25000  1.0000
  Ge  Ge2       1.0  0.35000  0.35000  0.75000  1.0000
  H   H1        1.0  0.90200  0.48900  0.23900  1.0000
  H   H2        1.0  0.48900  0.90200  0.26100  1.0000
  H   H3        1.0  0.09840  0.51100  0.76100  1.0000
  H   H4        1.0  0.51100  0.09840  0.73900  1.0000
  H   H5        1.0  0.80900  0.31700  0.19700  1.0000
  H   H6        1.0  0.31700  0.80900  0.30300  1.0000
  H   H7        1.0  0.19100  0.68300  0.80300  1.0000
  H   H8        1.0  0.68300  0.19100  0.69700  1.0000
  K   K1        1.0  0.13700  0.81600  0.48700  1.0000
  K   K2        1.0  0.81600  0.13700  0.01330  1.0000
  K   K3        1.0  0.86300  0.18400  0.51300  1.0000
  K   K4        1.0  0.18400  0.86300  0.98700  1.0000
  K   K5        1.0  0.42000  0.24800  0.14800  1.0000
  K   K6        1.0  0.24800  0.42000  0.35200  1.0000
  K   K7        1.0  0.58000  0.75200  0.85200  1.0000
  K   K8        1.0  0.75200  0.58000  0.64800  1.0000
  O   O1        1.0  0.10800  0.63400  0.72800  1.0000
  O   O2        1.0  0.63400  0.10800  0.77200  1.0000
  O   O3        1.0  0.89200  0.36600  0.27200  1.0000
  O   O4        1.0  0.36600  0.89200  0.22800  1.0000
  Te  Te1       1.0  0.91500  0.78400  0.17000  1.0000
  Te  Te2       1.0  0.78400  0.91500  0.33000  1.0000
  Te  Te3       1.0  0.08530  0.21600  0.83000  1.0000
  Te  Te4       1.0  0.21600  0.08530  0.67000  1.0000
  Te  Te5       1.0  0.58300  0.32000  0.44100  1.0000
  Te  Te6       1.0  0.32000  0.58300  0.05910  1.0000
  Te  Te7       1.0  0.41700  0.68000  0.55900  1.0000
  Te  Te8       1.0  0.68000  0.41700  0.94100  1.0000
