data_image0
_chemical_formula_structural       Ho16In4Ir4
_chemical_formula_sum              "Ho16 In4 Ir4"
_cell_length_a       9.5932
_cell_length_b       9.5932
_cell_length_c       9.5932
_cell_angle_alpha    60
_cell_angle_beta     60
_cell_angle_gamma    60

_space_group_name_H-M_alt    "P 1"
_space_group_IT_number       1

loop_
  _space_group_symop_operation_xyz
  'x, y, z'

loop_
  _atom_site_type_symbol
  _atom_site_label
  _atom_site_symmetry_multiplicity
  _atom_site_fract_x
  _atom_site_fract_y
  _atom_site_fract_z
  _atom_site_occupancy
  Ho  Ho1       1.0  0.80900  0.19100  0.19100  1.0000
  Ho  Ho2       1.0  0.19100  0.80900  0.80900  1.0000
  Ho  Ho3       1.0  0.19100  0.80900  0.19100  1.0000
  Ho  Ho4       1.0  0.19100  0.19100  0.80900  1.0000
  Ho  Ho5       1.0  0.80900  0.19100  0.80900  1.0000
  Ho  Ho6       1.0  0.80900  0.80900  0.19100  1.0000
  Ho  Ho7       1.0  0.35000  0.35000  0.35000  1.0000
  Ho  Ho8       1.0  0.35000  0.35000  0.95100  1.0000
  Ho  Ho9       1.0  0.95100  0.35000  0.35000  1.0000
  Ho  Ho10      1.0  0.35000  0.95100  0.35000  1.0000
  Ho  Ho11      1.0  0.94000  0.56000  0.56000  1.0000
  Ho  Ho12      1.0  0.56000  0.94000  0.94000  1.0000
  Ho  Ho13      1.0  0.56000  0.94000  0.56000  1.0000
  Ho  Ho14      1.0  0.56000  0.56000  0.94000  1.0000
  Ho  Ho15      1.0  0.94000  0.56000  0.94000  1.0000
  Ho  Ho16      1.0  0.94000  0.94000  0.56000  1.0000
  In  In1       1.0  0.58300  0.58300  0.58300  1.0000
  In  In2       1.0  0.58300  0.58300  0.25000  1.0000
  In  In3       1.0  0.25000  0.58300  0.58300  1.0000
  In  In4       1.0  0.58300  0.25000  0.58300  1.0000
  Ir  Ir1       1.0  0.14200  0.14200  0.14200  1.0000
  Ir  Ir2       1.0  0.14200  0.14200  0.57500  1.0000
  Ir  Ir3       1.0  0.57500  0.14200  0.14200  1.0000
  Ir  Ir4       1.0  0.14200  0.57500  0.14200  1.0000
