data_image0
_chemical_formula_structural       Gd16In4Ir4O
_chemical_formula_sum              "Gd16 In4 Ir4 O1"
_cell_length_a       9.7238
_cell_length_b       9.7238
_cell_length_c       9.7238
_cell_angle_alpha    60
_cell_angle_beta     60
_cell_angle_gamma    60

_space_group_name_H-M_alt    "P 1"
_space_group_IT_number       1

loop_
  _space_group_symop_operation_xyz
  'x, y, z'

loop_
  _atom_site_type_symbol
  _atom_site_label
  _atom_site_symmetry_multiplicity
  _atom_site_fract_x
  _atom_site_fract_y
  _atom_site_fract_z
  _atom_site_occupancy
  Gd  Gd1       1.0  0.06610  0.43400  0.43400  1.0000
  Gd  Gd2       1.0  0.43400  0.06610  0.06610  1.0000
  Gd  Gd3       1.0  0.43400  0.06610  0.43400  1.0000
  Gd  Gd4       1.0  0.43400  0.43400  0.06610  1.0000
  Gd  Gd5       1.0  0.06610  0.43400  0.06610  1.0000
  Gd  Gd6       1.0  0.06610  0.06610  0.43400  1.0000
  Gd  Gd7       1.0  0.19200  0.80800  0.80800  1.0000
  Gd  Gd8       1.0  0.80800  0.19200  0.19200  1.0000
  Gd  Gd9       1.0  0.80800  0.19200  0.80800  1.0000
  Gd  Gd10      1.0  0.80800  0.80800  0.19200  1.0000
  Gd  Gd11      1.0  0.19200  0.80800  0.19200  1.0000
  Gd  Gd12      1.0  0.19200  0.19200  0.80800  1.0000
  Gd  Gd13      1.0  0.65100  0.65100  0.65100  1.0000
  Gd  Gd14      1.0  0.65100  0.65100  0.04630  1.0000
  Gd  Gd15      1.0  0.04630  0.65100  0.65100  1.0000
  Gd  Gd16      1.0  0.65100  0.04630  0.65100  1.0000
  In  In1       1.0  0.41800  0.41800  0.41800  1.0000
  In  In2       1.0  0.41800  0.41800  0.74500  1.0000
  In  In3       1.0  0.74500  0.41800  0.41800  1.0000
  In  In4       1.0  0.41800  0.74500  0.41800  1.0000
  Ir  Ir1       1.0  0.85900  0.85900  0.85900  1.0000
  Ir  Ir2       1.0  0.85900  0.85900  0.42400  1.0000
  Ir  Ir3       1.0  0.42400  0.85900  0.85900  1.0000
  Ir  Ir4       1.0  0.85900  0.42400  0.85900  1.0000
  O   O1        1.0  0.25000  0.25000  0.25000  1.0000
