data_image0
_chemical_formula_structural       Cr4Cs4F20
_chemical_formula_sum              "Cr4 Cs4 F20"
_cell_length_a       9.73579
_cell_length_b       5.29968
_cell_length_c       7.2733
_cell_angle_alpha    90
_cell_angle_beta     90
_cell_angle_gamma    90

_space_group_name_H-M_alt    "P 1"
_space_group_IT_number       1

loop_
  _space_group_symop_operation_xyz
  'x, y, z'

loop_
  _atom_site_type_symbol
  _atom_site_label
  _atom_site_symmetry_multiplicity
  _atom_site_fract_x
  _atom_site_fract_y
  _atom_site_fract_z
  _atom_site_occupancy
  Cr  Cr1       1.0  0.45400  0.25000  0.67500  1.0000
  Cr  Cr2       1.0  0.04560  0.75000  0.17500  1.0000
  Cr  Cr3       1.0  0.95400  0.25000  0.82500  1.0000
  Cr  Cr4       1.0  0.54600  0.75000  0.32500  1.0000
  Cs  Cs1       1.0  0.19100  0.75000  0.65400  1.0000
  Cs  Cs2       1.0  0.30900  0.25000  0.15400  1.0000
  Cs  Cs3       1.0  0.69100  0.75000  0.84600  1.0000
  Cs  Cs4       1.0  0.80900  0.25000  0.34600  1.0000
  F   F1        1.0  0.29500  0.25000  0.55300  1.0000
  F   F2        1.0  0.20500  0.75000  0.05250  1.0000
  F   F3        1.0  0.79500  0.25000  0.94700  1.0000
  F   F4        1.0  0.70500  0.75000  0.44700  1.0000
  F   F5        1.0  0.63500  0.25000  0.71000  1.0000
  F   F6        1.0  0.86500  0.75000  0.21000  1.0000
  F   F7        1.0  0.13500  0.25000  0.79000  1.0000
  F   F8        1.0  0.36500  0.75000  0.29000  1.0000
  F   F9        1.0  0.50000  0.00000  0.50000  1.0000
  F   F10       1.0  0.00000  0.00000  0.00000  1.0000
  F   F11       1.0  0.00000  0.50000  0.00000  1.0000
  F   F12       1.0  0.50000  0.50000  0.50000  1.0000
  F   F13       1.0  0.41700  0.00794  0.83800  1.0000
  F   F14       1.0  0.08340  0.99200  0.33800  1.0000
  F   F15       1.0  0.91700  0.49200  0.66200  1.0000
  F   F16       1.0  0.58300  0.50800  0.16200  1.0000
  F   F17       1.0  0.58300  0.99200  0.16200  1.0000
  F   F18       1.0  0.91700  0.00794  0.66200  1.0000
  F   F19       1.0  0.08340  0.50800  0.33800  1.0000
  F   F20       1.0  0.41700  0.49200  0.83800  1.0000
