data_image0
_chemical_formula_structural       Cl2Cs2MnO6V2
_chemical_formula_sum              "Cl2 Cs2 Mn1 O6 V2"
_cell_length_a       9.47489
_cell_length_b       9.47489
_cell_length_c       5.06619
_cell_angle_alpha    90
_cell_angle_beta     90
_cell_angle_gamma    33.8052

_space_group_name_H-M_alt    "P 1"
_space_group_IT_number       1

loop_
  _space_group_symop_operation_xyz
  'x, y, z'

loop_
  _atom_site_type_symbol
  _atom_site_label
  _atom_site_symmetry_multiplicity
  _atom_site_fract_x
  _atom_site_fract_y
  _atom_site_fract_z
  _atom_site_occupancy
  Cl  Cl1       1.0  0.00000  0.00000  0.92300  1.0000
  Cl  Cl2       1.0  0.50000  0.50000  0.37900  1.0000
  Cs  Cs1       1.0  0.62700  0.62700  0.86300  1.0000
  Cs  Cs2       1.0  0.37300  0.37300  0.86300  1.0000
  Mn  Mn1       1.0  0.00000  0.00000  0.40900  1.0000
  O   O1        1.0  0.50000  0.00000  0.49000  1.0000
  O   O2        1.0  0.00000  0.50000  0.49000  1.0000
  O   O3        1.0  0.11100  0.11100  0.46600  1.0000
  O   O4        1.0  0.88900  0.88900  0.46600  1.0000
  O   O5        1.0  0.20100  0.20100  0.03340  1.0000
  O   O6        1.0  0.79900  0.79900  0.03340  1.0000
  V   V1        1.0  0.19800  0.19800  0.35800  1.0000
  V   V2        1.0  0.80200  0.80200  0.35800  1.0000
