data_image0
_chemical_formula_structural       Gd4In20Ni11
_chemical_formula_sum              "Gd4 In20 Ni11"
_cell_length_a       11.4815
_cell_length_b       11.4815
_cell_length_c       16.5547
_cell_angle_alpha    56.1204
_cell_angle_beta     123.88
_cell_angle_gamma    158.235

_space_group_name_H-M_alt    "P 1"
_space_group_IT_number       1

loop_
  _space_group_symop_operation_xyz
  'x, y, z'

loop_
  _atom_site_type_symbol
  _atom_site_label
  _atom_site_symmetry_multiplicity
  _atom_site_fract_x
  _atom_site_fract_y
  _atom_site_fract_z
  _atom_site_occupancy
  Gd  Gd1       1.0  0.11900  0.88100  0.33300  1.0000
  Gd  Gd2       1.0  0.88100  0.11900  0.66700  1.0000
  Gd  Gd3       1.0  0.77100  0.22900  0.17500  1.0000
  Gd  Gd4       1.0  0.22900  0.77100  0.82500  1.0000
  In  In1       1.0  0.39800  0.60200  0.00847  1.0000
  In  In2       1.0  0.60200  0.39800  0.99200  1.0000
  In  In3       1.0  0.54100  0.45900  0.37800  1.0000
  In  In4       1.0  0.45900  0.54100  0.62200  1.0000
  In  In5       1.0  0.20200  0.79800  0.00305  1.0000
  In  In6       1.0  0.79800  0.20200  0.99700  1.0000
  In  In7       1.0  0.24600  0.75400  0.29000  1.0000
  In  In8       1.0  0.75400  0.24600  0.71000  1.0000
  In  In9       1.0  0.29700  0.70300  0.49700  1.0000
  In  In10      1.0  0.70300  0.29700  0.50300  1.0000
  In  In11      1.0  0.38900  0.61100  0.31000  1.0000
  In  In12      1.0  0.61100  0.38900  0.69000  1.0000
  In  In13      1.0  0.00948  0.99100  0.09560  1.0000
  In  In14      1.0  0.99100  0.00948  0.90400  1.0000
  In  In15      1.0  0.06380  0.93600  0.79000  1.0000
  In  In16      1.0  0.93600  0.06380  0.21000  1.0000
  In  In17      1.0  0.11500  0.88500  0.55200  1.0000
  In  In18      1.0  0.88500  0.11500  0.44800  1.0000
  In  In19      1.0  0.62800  0.37200  0.19600  1.0000
  In  In20      1.0  0.37200  0.62800  0.80400  1.0000
  Ni  Ni1       1.0  0.13500  0.86500  0.10300  1.0000
  Ni  Ni2       1.0  0.86500  0.13500  0.89700  1.0000
  Ni  Ni3       1.0  0.25300  0.74700  0.61700  1.0000
  Ni  Ni4       1.0  0.74700  0.25300  0.38300  1.0000
  Ni  Ni5       1.0  0.02260  0.97700  0.60000  1.0000
  Ni  Ni6       1.0  0.97700  0.02260  0.40000  1.0000
  Ni  Ni7       1.0  0.50000  0.50000  0.50000  1.0000
  Ni  Ni8       1.0  0.34700  0.65300  0.12100  1.0000
  Ni  Ni9       1.0  0.65300  0.34700  0.87900  1.0000
  Ni  Ni10      1.0  0.50600  0.49400  0.19500  1.0000
  Ni  Ni11      1.0  0.49400  0.50600  0.80500  1.0000
