data_image0
_chemical_formula_structural       Ca2H2Mg5O24Si8
_chemical_formula_sum              "Ca2 H2 Mg5 O24 Si8"
_cell_length_a       5.26381
_cell_length_b       9.74841
_cell_length_c       10.2215
_cell_angle_alpha    61.5196
_cell_angle_beta     97.0729
_cell_angle_gamma    104.964

_space_group_name_H-M_alt    "P 1"
_space_group_IT_number       1

loop_
  _space_group_symop_operation_xyz
  'x, y, z'

loop_
  _atom_site_type_symbol
  _atom_site_label
  _atom_site_symmetry_multiplicity
  _atom_site_fract_x
  _atom_site_fract_y
  _atom_site_fract_z
  _atom_site_occupancy
  Ca  Ca1       1.0  0.50000  0.27700  0.44600  1.0000
  Ca  Ca2       1.0  0.50000  0.72300  0.55400  1.0000
  H   H1        1.0  0.77000  0.21600  0.00000  1.0000
  H   H2        1.0  0.23000  0.78400  0.00000  1.0000
  Mg  Mg1       1.0  0.00000  0.00000  0.00000  1.0000
  Mg  Mg2       1.0  0.50000  0.91300  0.17400  1.0000
  Mg  Mg3       1.0  0.00000  0.82500  0.35000  1.0000
  Mg  Mg4       1.0  0.00000  0.17500  0.65000  1.0000
  Mg  Mg5       1.0  0.50000  0.08680  0.82600  1.0000
  O   O1        1.0  0.71700  0.11300  0.00000  1.0000
  O   O2        1.0  0.28500  0.34600  0.00000  1.0000
  O   O3        1.0  0.71500  0.65400  0.00000  1.0000
  O   O4        1.0  0.28300  0.88700  0.00000  1.0000
  O   O5        1.0  0.21800  0.02770  0.17000  1.0000
  O   O6        1.0  0.78200  0.80200  0.17000  1.0000
  O   O7        1.0  0.59700  0.23200  0.23400  1.0000
  O   O8        1.0  0.40300  0.53400  0.23400  1.0000
  O   O9        1.0  0.10700  0.21400  0.27400  1.0000
  O   O10       1.0  0.89300  0.51100  0.27400  1.0000
  O   O11       1.0  0.27500  0.71200  0.34100  1.0000
  O   O12       1.0  0.72500  0.94700  0.34100  1.0000
  O   O13       1.0  0.78800  0.61400  0.50000  1.0000
  O   O14       1.0  0.21200  0.88600  0.50000  1.0000
  O   O15       1.0  0.78800  0.11400  0.50000  1.0000
  O   O16       1.0  0.21200  0.38600  0.50000  1.0000
  O   O17       1.0  0.27500  0.05320  0.65900  1.0000
  O   O18       1.0  0.72500  0.28800  0.65900  1.0000
  O   O19       1.0  0.10700  0.48900  0.72600  1.0000
  O   O20       1.0  0.89300  0.78600  0.72600  1.0000
  O   O21       1.0  0.59700  0.46600  0.76600  1.0000
  O   O22       1.0  0.40300  0.76800  0.76600  1.0000
  O   O23       1.0  0.21800  0.19800  0.83000  1.0000
  O   O24       1.0  0.78200  0.97200  0.83000  1.0000
  Si  Si1       1.0  0.29900  0.20000  0.16800  1.0000
  Si  Si2       1.0  0.70100  0.63200  0.16800  1.0000
  Si  Si3       1.0  0.80600  0.11800  0.34400  1.0000
  Si  Si4       1.0  0.19400  0.53900  0.34400  1.0000
  Si  Si5       1.0  0.80600  0.46100  0.65600  1.0000
  Si  Si6       1.0  0.19400  0.88200  0.65600  1.0000
  Si  Si7       1.0  0.29900  0.36800  0.83200  1.0000
  Si  Si8       1.0  0.70100  0.80000  0.83200  1.0000
