data_image0
_chemical_formula_structural       Ni2O6Ti2
_chemical_formula_sum              "Ni2 O6 Ti2"
_cell_length_a       5.423
_cell_length_b       5.423
_cell_length_c       5.423
_cell_angle_alpha    55.2539
_cell_angle_beta     55.2539
_cell_angle_gamma    55.2539

_space_group_name_H-M_alt    "P 1"
_space_group_IT_number       1

loop_
  _space_group_symop_operation_xyz
  'x, y, z'

loop_
  _atom_site_type_symbol
  _atom_site_label
  _atom_site_symmetry_multiplicity
  _atom_site_fract_x
  _atom_site_fract_y
  _atom_site_fract_z
  _atom_site_occupancy
  Ni  Ni1       1.0  0.35000  0.35000  0.35000  1.0000
  Ni  Ni2       1.0  0.65000  0.65000  0.65000  1.0000
  O   O1        1.0  0.76500  0.44000  0.05260  1.0000
  O   O2        1.0  0.56000  0.94700  0.23500  1.0000
  O   O3        1.0  0.05260  0.76500  0.44000  1.0000
  O   O4        1.0  0.94700  0.23500  0.56000  1.0000
  O   O5        1.0  0.44000  0.05260  0.76500  1.0000
  O   O6        1.0  0.23500  0.56000  0.94700  1.0000
  Ti  Ti1       1.0  0.14400  0.14400  0.14400  1.0000
  Ti  Ti2       1.0  0.85600  0.85600  0.85600  1.0000
