data_image0
_chemical_formula_structural       Dy10In8Ni4
_chemical_formula_sum              "Dy10 In8 Ni4"
_cell_length_a       17.9267
_cell_length_b       7.96042
_cell_length_c       3.59099
_cell_angle_alpha    90
_cell_angle_beta     90
_cell_angle_gamma    90

_space_group_name_H-M_alt    "P 1"
_space_group_IT_number       1

loop_
  _space_group_symop_operation_xyz
  'x, y, z'

loop_
  _atom_site_type_symbol
  _atom_site_label
  _atom_site_symmetry_multiplicity
  _atom_site_fract_x
  _atom_site_fract_y
  _atom_site_fract_z
  _atom_site_occupancy
  Dy  Dy1       1.0  0.41200  0.11800  0.00000  1.0000
  Dy  Dy2       1.0  0.58800  0.88200  0.00000  1.0000
  Dy  Dy3       1.0  0.91200  0.38200  0.00000  1.0000
  Dy  Dy4       1.0  0.08790  0.61800  0.00000  1.0000
  Dy  Dy5       1.0  0.00000  0.00000  0.00000  1.0000
  Dy  Dy6       1.0  0.50000  0.50000  0.00000  1.0000
  Dy  Dy7       1.0  0.22200  0.25000  0.00000  1.0000
  Dy  Dy8       1.0  0.77800  0.75000  0.00000  1.0000
  Dy  Dy9       1.0  0.72200  0.25000  0.00000  1.0000
  Dy  Dy10      1.0  0.27800  0.75000  0.00000  1.0000
  In  In1       1.0  0.56800  0.20600  0.50000  1.0000
  In  In2       1.0  0.43200  0.79400  0.50000  1.0000
  In  In3       1.0  0.06840  0.29400  0.50000  1.0000
  In  In4       1.0  0.93200  0.70600  0.50000  1.0000
  In  In5       1.0  0.84900  0.06570  0.50000  1.0000
  In  In6       1.0  0.15100  0.93400  0.50000  1.0000
  In  In7       1.0  0.34900  0.43400  0.50000  1.0000
  In  In8       1.0  0.65100  0.56600  0.50000  1.0000
  Ni  Ni1       1.0  0.30300  0.02730  0.50000  1.0000
  Ni  Ni2       1.0  0.69700  0.97300  0.50000  1.0000
  Ni  Ni3       1.0  0.80300  0.47300  0.50000  1.0000
  Ni  Ni4       1.0  0.19700  0.52700  0.50000  1.0000
