data_image0
_chemical_formula_structural       Cd4Gd16Rh4
_chemical_formula_sum              "Cd4 Gd16 Rh4"
_cell_length_a       9.65751
_cell_length_b       9.65751
_cell_length_c       9.65751
_cell_angle_alpha    60
_cell_angle_beta     60
_cell_angle_gamma    60

_space_group_name_H-M_alt    "P 1"
_space_group_IT_number       1

loop_
  _space_group_symop_operation_xyz
  'x, y, z'

loop_
  _atom_site_type_symbol
  _atom_site_label
  _atom_site_symmetry_multiplicity
  _atom_site_fract_x
  _atom_site_fract_y
  _atom_site_fract_z
  _atom_site_occupancy
  Cd  Cd1       1.0  0.41900  0.41900  0.41900  1.0000
  Cd  Cd2       1.0  0.41900  0.41900  0.74200  1.0000
  Cd  Cd3       1.0  0.74200  0.41900  0.41900  1.0000
  Cd  Cd4       1.0  0.41900  0.74200  0.41900  1.0000
  Gd  Gd1       1.0  0.06340  0.43700  0.43700  1.0000
  Gd  Gd2       1.0  0.43700  0.06340  0.06340  1.0000
  Gd  Gd3       1.0  0.43700  0.06340  0.43700  1.0000
  Gd  Gd4       1.0  0.43700  0.43700  0.06340  1.0000
  Gd  Gd5       1.0  0.06340  0.43700  0.06340  1.0000
  Gd  Gd6       1.0  0.06340  0.06340  0.43700  1.0000
  Gd  Gd7       1.0  0.18900  0.81100  0.81100  1.0000
  Gd  Gd8       1.0  0.81100  0.18900  0.18900  1.0000
  Gd  Gd9       1.0  0.81100  0.18900  0.81100  1.0000
  Gd  Gd10      1.0  0.81100  0.81100  0.18900  1.0000
  Gd  Gd11      1.0  0.18900  0.81100  0.18900  1.0000
  Gd  Gd12      1.0  0.18900  0.18900  0.81100  1.0000
  Gd  Gd13      1.0  0.65000  0.65000  0.65000  1.0000
  Gd  Gd14      1.0  0.65000  0.65000  0.04950  1.0000
  Gd  Gd15      1.0  0.04950  0.65000  0.65000  1.0000
  Gd  Gd16      1.0  0.65000  0.04950  0.65000  1.0000
  Rh  Rh1       1.0  0.85800  0.85800  0.85800  1.0000
  Rh  Rh2       1.0  0.85800  0.85800  0.42700  1.0000
  Rh  Rh3       1.0  0.42700  0.85800  0.85800  1.0000
  Rh  Rh4       1.0  0.85800  0.42700  0.85800  1.0000
