data_image0
_chemical_formula_structural       Cd4Co4La16
_chemical_formula_sum              "Cd4 Co4 La16"
_cell_length_a       9.78838
_cell_length_b       9.78838
_cell_length_c       9.78838
_cell_angle_alpha    60
_cell_angle_beta     60
_cell_angle_gamma    60

_space_group_name_H-M_alt    "P 1"
_space_group_IT_number       1

loop_
  _space_group_symop_operation_xyz
  'x, y, z'

loop_
  _atom_site_type_symbol
  _atom_site_label
  _atom_site_symmetry_multiplicity
  _atom_site_fract_x
  _atom_site_fract_y
  _atom_site_fract_z
  _atom_site_occupancy
  Cd  Cd1       1.0  0.57900  0.57900  0.57900  1.0000
  Cd  Cd2       1.0  0.57900  0.57900  0.26300  1.0000
  Cd  Cd3       1.0  0.26300  0.57900  0.57900  1.0000
  Cd  Cd4       1.0  0.57900  0.26300  0.57900  1.0000
  Co  Co1       1.0  0.14000  0.14000  0.14000  1.0000
  Co  Co2       1.0  0.14000  0.14000  0.58100  1.0000
  Co  Co3       1.0  0.58100  0.14000  0.14000  1.0000
  Co  Co4       1.0  0.14000  0.58100  0.14000  1.0000
  La  La1       1.0  0.94100  0.55900  0.55900  1.0000
  La  La2       1.0  0.55900  0.94100  0.94100  1.0000
  La  La3       1.0  0.55900  0.94100  0.55900  1.0000
  La  La4       1.0  0.55900  0.55900  0.94100  1.0000
  La  La5       1.0  0.94100  0.55900  0.94100  1.0000
  La  La6       1.0  0.94100  0.94100  0.55900  1.0000
  La  La7       1.0  0.81000  0.19000  0.19000  1.0000
  La  La8       1.0  0.19000  0.81000  0.81000  1.0000
  La  La9       1.0  0.19000  0.81000  0.19000  1.0000
  La  La10      1.0  0.19000  0.19000  0.81000  1.0000
  La  La11      1.0  0.81000  0.19000  0.81000  1.0000
  La  La12      1.0  0.81000  0.81000  0.19000  1.0000
  La  La13      1.0  0.34600  0.34600  0.34600  1.0000
  La  La14      1.0  0.34600  0.34600  0.96200  1.0000
  La  La15      1.0  0.96200  0.34600  0.34600  1.0000
  La  La16      1.0  0.34600  0.96200  0.34600  1.0000
