data_image0
_chemical_formula_structural       Cd4La16Ru4
_chemical_formula_sum              "Cd4 La16 Ru4"
_cell_length_a       10.0034
_cell_length_b       10.0034
_cell_length_c       10.0034
_cell_angle_alpha    60
_cell_angle_beta     60
_cell_angle_gamma    60

_space_group_name_H-M_alt    "P 1"
_space_group_IT_number       1

loop_
  _space_group_symop_operation_xyz
  'x, y, z'

loop_
  _atom_site_type_symbol
  _atom_site_label
  _atom_site_symmetry_multiplicity
  _atom_site_fract_x
  _atom_site_fract_y
  _atom_site_fract_z
  _atom_site_occupancy
  Cd  Cd1       1.0  0.42100  0.42100  0.42100  1.0000
  Cd  Cd2       1.0  0.42100  0.42100  0.73600  1.0000
  Cd  Cd3       1.0  0.73600  0.42100  0.42100  1.0000
  Cd  Cd4       1.0  0.42100  0.73600  0.42100  1.0000
  La  La1       1.0  0.05870  0.44100  0.44100  1.0000
  La  La2       1.0  0.44100  0.05870  0.05870  1.0000
  La  La3       1.0  0.44100  0.05870  0.44100  1.0000
  La  La4       1.0  0.44100  0.44100  0.05870  1.0000
  La  La5       1.0  0.05870  0.44100  0.05870  1.0000
  La  La6       1.0  0.05870  0.05870  0.44100  1.0000
  La  La7       1.0  0.18900  0.81100  0.81100  1.0000
  La  La8       1.0  0.81100  0.18900  0.18900  1.0000
  La  La9       1.0  0.81100  0.18900  0.81100  1.0000
  La  La10      1.0  0.81100  0.81100  0.18900  1.0000
  La  La11      1.0  0.18900  0.81100  0.18900  1.0000
  La  La12      1.0  0.18900  0.18900  0.81100  1.0000
  La  La13      1.0  0.65400  0.65400  0.65400  1.0000
  La  La14      1.0  0.65400  0.65400  0.03930  1.0000
  La  La15      1.0  0.03930  0.65400  0.65400  1.0000
  La  La16      1.0  0.65400  0.03930  0.65400  1.0000
  Ru  Ru1       1.0  0.86300  0.86300  0.86300  1.0000
  Ru  Ru2       1.0  0.86300  0.86300  0.41200  1.0000
  Ru  Ru3       1.0  0.41200  0.86300  0.86300  1.0000
  Ru  Ru4       1.0  0.86300  0.41200  0.86300  1.0000
