data_image0
_chemical_formula_structural       Cd4Ru4Y16
_chemical_formula_sum              "Cd4 Ru4 Y16"
_cell_length_a       9.59744
_cell_length_b       9.59744
_cell_length_c       9.59744
_cell_angle_alpha    60
_cell_angle_beta     60
_cell_angle_gamma    60

_space_group_name_H-M_alt    "P 1"
_space_group_IT_number       1

loop_
  _space_group_symop_operation_xyz
  'x, y, z'

loop_
  _atom_site_type_symbol
  _atom_site_label
  _atom_site_symmetry_multiplicity
  _atom_site_fract_x
  _atom_site_fract_y
  _atom_site_fract_z
  _atom_site_occupancy
  Cd  Cd1       1.0  0.58100  0.58100  0.58100  1.0000
  Cd  Cd2       1.0  0.58100  0.58100  0.25700  1.0000
  Cd  Cd3       1.0  0.25700  0.58100  0.58100  1.0000
  Cd  Cd4       1.0  0.58100  0.25700  0.58100  1.0000
  Ru  Ru1       1.0  0.14000  0.14000  0.14000  1.0000
  Ru  Ru2       1.0  0.14000  0.14000  0.58100  1.0000
  Ru  Ru3       1.0  0.58100  0.14000  0.14000  1.0000
  Ru  Ru4       1.0  0.14000  0.58100  0.14000  1.0000
  Y   Y1        1.0  0.93900  0.56100  0.56100  1.0000
  Y   Y2        1.0  0.56100  0.93900  0.93900  1.0000
  Y   Y3        1.0  0.56100  0.93900  0.56100  1.0000
  Y   Y4        1.0  0.56100  0.56100  0.93900  1.0000
  Y   Y5        1.0  0.93900  0.56100  0.93900  1.0000
  Y   Y6        1.0  0.93900  0.93900  0.56100  1.0000
  Y   Y7        1.0  0.34800  0.34800  0.34800  1.0000
  Y   Y8        1.0  0.34800  0.34800  0.95700  1.0000
  Y   Y9        1.0  0.95700  0.34800  0.34800  1.0000
  Y   Y10       1.0  0.34800  0.95700  0.34800  1.0000
  Y   Y11       1.0  0.81000  0.19000  0.19000  1.0000
  Y   Y12       1.0  0.19000  0.81000  0.81000  1.0000
  Y   Y13       1.0  0.19000  0.81000  0.19000  1.0000
  Y   Y14       1.0  0.19000  0.19000  0.81000  1.0000
  Y   Y15       1.0  0.81000  0.19000  0.81000  1.0000
  Y   Y16       1.0  0.81000  0.81000  0.19000  1.0000
