data_image0
_chemical_formula_structural       Cl2O18Re2S4
_chemical_formula_sum              "Cl2 O18 Re2 S4"
_cell_length_a       6.76416
_cell_length_b       7.23621
_cell_length_c       7.69928
_cell_angle_alpha    88.9848
_cell_angle_beta     80.6798
_cell_angle_gamma    66.7907

_space_group_name_H-M_alt    "P 1"
_space_group_IT_number       1

loop_
  _space_group_symop_operation_xyz
  'x, y, z'

loop_
  _atom_site_type_symbol
  _atom_site_label
  _atom_site_symmetry_multiplicity
  _atom_site_fract_x
  _atom_site_fract_y
  _atom_site_fract_z
  _atom_site_occupancy
  Cl  Cl1       1.0  0.97800  0.18500  0.67000  1.0000
  Cl  Cl2       1.0  0.02160  0.81500  0.33000  1.0000
  O   O1        1.0  0.39500  0.44100  0.79000  1.0000
  O   O2        1.0  0.60500  0.55900  0.21000  1.0000
  O   O3        1.0  0.31800  0.73700  0.61100  1.0000
  O   O4        1.0  0.68200  0.26300  0.38900  1.0000
  O   O5        1.0  0.50700  0.70100  0.87000  1.0000
  O   O6        1.0  0.49300  0.29900  0.13000  1.0000
  O   O7        1.0  0.12500  0.77200  0.92000  1.0000
  O   O8        1.0  0.87500  0.22900  0.08030  1.0000
  O   O9        1.0  0.96500  0.54100  0.83300  1.0000
  O   O10       1.0  0.03510  0.45900  0.16700  1.0000
  O   O11       1.0  0.76300  0.82100  0.04670  1.0000
  O   O12       1.0  0.23700  0.17900  0.95300  1.0000
  O   O13       1.0  0.83000  0.88400  0.73600  1.0000
  O   O14       1.0  0.17000  0.11600  0.26400  1.0000
  O   O15       1.0  0.22700  0.42100  0.49600  1.0000
  O   O16       1.0  0.77300  0.57900  0.50400  1.0000
  O   O17       1.0  0.46300  0.08250  0.64100  1.0000
  O   O18       1.0  0.53700  0.91700  0.35900  1.0000
  Re  Re1       1.0  0.23400  0.29700  0.68800  1.0000
  Re  Re2       1.0  0.76600  0.70300  0.31200  1.0000
  S   S1        1.0  0.35700  0.66500  0.78100  1.0000
  S   S2        1.0  0.64300  0.33500  0.21900  1.0000
  S   S3        1.0  0.90300  0.75800  0.87500  1.0000
  S   S4        1.0  0.09710  0.24200  0.12500  1.0000
