data_image0
_chemical_formula_structural       F4Mo4O16Sm4
_chemical_formula_sum              "F4 Mo4 O16 Sm4"
_cell_length_a       5.16184
_cell_length_b       12.1073
_cell_length_c       6.59759
_cell_angle_alpha    90
_cell_angle_beta     113.018
_cell_angle_gamma    90

_space_group_name_H-M_alt    "P 1"
_space_group_IT_number       1

loop_
  _space_group_symop_operation_xyz
  'x, y, z'

loop_
  _atom_site_type_symbol
  _atom_site_label
  _atom_site_symmetry_multiplicity
  _atom_site_fract_x
  _atom_site_fract_y
  _atom_site_fract_z
  _atom_site_occupancy
  F   F1        1.0  0.44900  0.10600  0.03930  1.0000
  F   F2        1.0  0.55100  0.60600  0.46100  1.0000
  F   F3        1.0  0.55100  0.89400  0.96100  1.0000
  F   F4        1.0  0.44900  0.39400  0.53900  1.0000
  Mo  Mo1       1.0  0.06320  0.64600  0.12800  1.0000
  Mo  Mo2       1.0  0.93700  0.14600  0.37200  1.0000
  Mo  Mo3       1.0  0.93700  0.35400  0.87200  1.0000
  Mo  Mo4       1.0  0.06320  0.85400  0.62800  1.0000
  O   O1        1.0  0.71500  0.05990  0.46700  1.0000
  O   O2        1.0  0.28500  0.56000  0.03350  1.0000
  O   O3        1.0  0.28500  0.94000  0.53300  1.0000
  O   O4        1.0  0.71500  0.44000  0.96700  1.0000
  O   O5        1.0  0.99600  0.57400  0.34200  1.0000
  O   O6        1.0  0.00379  0.07370  0.15800  1.0000
  O   O7        1.0  0.00380  0.42600  0.65800  1.0000
  O   O8        1.0  0.99600  0.92600  0.84200  1.0000
  O   O9        1.0  0.18700  0.77800  0.22500  1.0000
  O   O10       1.0  0.81300  0.27800  0.27500  1.0000
  O   O11       1.0  0.81300  0.22200  0.77500  1.0000
  O   O12       1.0  0.18700  0.72200  0.72500  1.0000
  O   O13       1.0  0.25500  0.33100  0.09510  1.0000
  O   O14       1.0  0.74500  0.83100  0.40500  1.0000
  O   O15       1.0  0.74500  0.66900  0.90500  1.0000
  O   O16       1.0  0.25500  0.16900  0.59500  1.0000
  Sm  Sm1       1.0  0.63400  0.44800  0.29800  1.0000
  Sm  Sm2       1.0  0.36600  0.94800  0.20200  1.0000
  Sm  Sm3       1.0  0.36600  0.55200  0.70100  1.0000
  Sm  Sm4       1.0  0.63400  0.05220  0.79900  1.0000
