data_image0
_chemical_formula_structural       Eu4F4Mo4O16
_chemical_formula_sum              "Eu4 F4 Mo4 O16"
_cell_length_a       5.16822
_cell_length_b       12.0726
_cell_length_c       6.38193
_cell_angle_alpha    90
_cell_angle_beta     112.974
_cell_angle_gamma    90

_space_group_name_H-M_alt    "P 1"
_space_group_IT_number       1

loop_
  _space_group_symop_operation_xyz
  'x, y, z'

loop_
  _atom_site_type_symbol
  _atom_site_label
  _atom_site_symmetry_multiplicity
  _atom_site_fract_x
  _atom_site_fract_y
  _atom_site_fract_z
  _atom_site_occupancy
  Eu  Eu1       1.0  0.62300  0.44900  0.30000  1.0000
  Eu  Eu2       1.0  0.37700  0.94900  0.20000  1.0000
  Eu  Eu3       1.0  0.37700  0.55100  0.70000  1.0000
  Eu  Eu4       1.0  0.62300  0.05140  0.80000  1.0000
  F   F1        1.0  0.51400  0.11400  0.08950  1.0000
  F   F2        1.0  0.48600  0.61400  0.41000  1.0000
  F   F3        1.0  0.48600  0.88600  0.91000  1.0000
  F   F4        1.0  0.51400  0.38600  0.59000  1.0000
  Mo  Mo1       1.0  0.05200  0.64400  0.13700  1.0000
  Mo  Mo2       1.0  0.94800  0.14400  0.36300  1.0000
  Mo  Mo3       1.0  0.94800  0.35600  0.86300  1.0000
  Mo  Mo4       1.0  0.05200  0.85600  0.63700  1.0000
  O   O1        1.0  0.77200  0.04300  0.48700  1.0000
  O   O2        1.0  0.22800  0.54300  0.01270  1.0000
  O   O3        1.0  0.22800  0.95700  0.51300  1.0000
  O   O4        1.0  0.77200  0.45700  0.98700  1.0000
  O   O5        1.0  0.96400  0.58700  0.35700  1.0000
  O   O6        1.0  0.03570  0.08710  0.14300  1.0000
  O   O7        1.0  0.03570  0.41300  0.64300  1.0000
  O   O8        1.0  0.96400  0.91300  0.85700  1.0000
  O   O9        1.0  0.17000  0.78100  0.22700  1.0000
  O   O10       1.0  0.83000  0.28100  0.27300  1.0000
  O   O11       1.0  0.83000  0.21900  0.77300  1.0000
  O   O12       1.0  0.17000  0.71900  0.72700  1.0000
  O   O13       1.0  0.26500  0.32200  0.09260  1.0000
  O   O14       1.0  0.73500  0.82200  0.40700  1.0000
  O   O15       1.0  0.73500  0.67800  0.90700  1.0000
  O   O16       1.0  0.26500  0.17800  0.59300  1.0000
