data_image0
_chemical_formula_structural       F4Mo4O16Tm4
_chemical_formula_sum              "F4 Mo4 O16 Tm4"
_cell_length_a       5.05482
_cell_length_b       11.7697
_cell_length_c       6.39547
_cell_angle_alpha    90.0001
_cell_angle_beta     113.423
_cell_angle_gamma    90

_space_group_name_H-M_alt    "P 1"
_space_group_IT_number       1

loop_
  _space_group_symop_operation_xyz
  'x, y, z'

loop_
  _atom_site_type_symbol
  _atom_site_label
  _atom_site_symmetry_multiplicity
  _atom_site_fract_x
  _atom_site_fract_y
  _atom_site_fract_z
  _atom_site_occupancy
  F   F1        1.0  0.45800  0.10300  0.03840  1.0000
  F   F2        1.0  0.54200  0.60300  0.46200  1.0000
  F   F3        1.0  0.54200  0.89700  0.96200  1.0000
  F   F4        1.0  0.45800  0.39700  0.53800  1.0000
  Mo  Mo1       1.0  0.05590  0.64600  0.12400  1.0000
  Mo  Mo2       1.0  0.94400  0.14600  0.37600  1.0000
  Mo  Mo3       1.0  0.94400  0.35400  0.87600  1.0000
  Mo  Mo4       1.0  0.05590  0.85400  0.62400  1.0000
  O   O1        1.0  0.71600  0.05560  0.46900  1.0000
  O   O2        1.0  0.28400  0.55600  0.03080  1.0000
  O   O3        1.0  0.28400  0.94400  0.53100  1.0000
  O   O4        1.0  0.71600  0.44400  0.96900  1.0000
  O   O5        1.0  0.98700  0.57500  0.34700  1.0000
  O   O6        1.0  0.01270  0.07510  0.15300  1.0000
  O   O7        1.0  0.01270  0.42500  0.65300  1.0000
  O   O8        1.0  0.98700  0.92500  0.84700  1.0000
  O   O9        1.0  0.18100  0.78300  0.22400  1.0000
  O   O10       1.0  0.81900  0.28300  0.27600  1.0000
  O   O11       1.0  0.81900  0.21700  0.77600  1.0000
  O   O12       1.0  0.18100  0.71700  0.72400  1.0000
  O   O13       1.0  0.27000  0.32900  0.10600  1.0000
  O   O14       1.0  0.73000  0.82900  0.39400  1.0000
  O   O15       1.0  0.73000  0.67100  0.89400  1.0000
  O   O16       1.0  0.27000  0.17100  0.60600  1.0000
  Tm  Tm1       1.0  0.63500  0.45000  0.29900  1.0000
  Tm  Tm2       1.0  0.36500  0.95000  0.20100  1.0000
  Tm  Tm3       1.0  0.36500  0.55000  0.70100  1.0000
  Tm  Tm4       1.0  0.63500  0.05050  0.79900  1.0000
