data_image0
_chemical_formula_structural       Eu11Sb12Zn6
_chemical_formula_sum              "Eu11 Sb12 Zn6"
_cell_length_a       16.1098
_cell_length_b       16.1098
_cell_length_c       12.2447
_cell_angle_alpha    70.0905
_cell_angle_beta     109.91
_cell_angle_gamma    163.619

_space_group_name_H-M_alt    "P 1"
_space_group_IT_number       1

loop_
  _space_group_symop_operation_xyz
  'x, y, z'

loop_
  _atom_site_type_symbol
  _atom_site_label
  _atom_site_symmetry_multiplicity
  _atom_site_fract_x
  _atom_site_fract_y
  _atom_site_fract_z
  _atom_site_occupancy
  Eu  Eu1       1.0  0.27900  0.72100  0.13900  1.0000
  Eu  Eu2       1.0  0.72100  0.27900  0.86100  1.0000
  Eu  Eu3       1.0  0.20000  0.80000  0.34500  1.0000
  Eu  Eu4       1.0  0.80000  0.20000  0.65500  1.0000
  Eu  Eu5       1.0  0.00000  0.00000  0.00000  1.0000
  Eu  Eu6       1.0  0.01940  0.98100  0.68000  1.0000
  Eu  Eu7       1.0  0.98100  0.01940  0.32000  1.0000
  Eu  Eu8       1.0  0.12600  0.87400  0.01990  1.0000
  Eu  Eu9       1.0  0.87400  0.12600  0.98000  1.0000
  Eu  Eu10      1.0  0.11500  0.88500  0.51000  1.0000
  Eu  Eu11      1.0  0.88500  0.11500  0.49000  1.0000
  Sb  Sb1       1.0  0.14800  0.85200  0.78600  1.0000
  Sb  Sb2       1.0  0.85200  0.14800  0.21400  1.0000
  Sb  Sb3       1.0  0.30800  0.69200  0.46100  1.0000
  Sb  Sb4       1.0  0.69200  0.30800  0.53900  1.0000
  Sb  Sb5       1.0  0.08700  0.91300  0.23400  1.0000
  Sb  Sb6       1.0  0.91300  0.08700  0.76600  1.0000
  Sb  Sb7       1.0  0.70500  0.29500  0.14000  1.0000
  Sb  Sb8       1.0  0.29500  0.70500  0.86000  1.0000
  Sb  Sb9       1.0  0.45200  0.54800  0.11800  1.0000
  Sb  Sb10      1.0  0.54800  0.45200  0.88200  1.0000
  Sb  Sb11      1.0  0.45600  0.54400  0.49900  1.0000
  Sb  Sb12      1.0  0.54400  0.45600  0.50100  1.0000
  Zn  Zn1       1.0  0.54500  0.45500  0.24700  1.0000
  Zn  Zn2       1.0  0.45500  0.54500  0.75300  1.0000
  Zn  Zn3       1.0  0.40100  0.59900  0.25800  1.0000
  Zn  Zn4       1.0  0.59900  0.40100  0.74200  1.0000
  Zn  Zn5       1.0  0.21800  0.78200  0.67300  1.0000
  Zn  Zn6       1.0  0.78200  0.21800  0.32700  1.0000
