data_image0
_chemical_formula_structural       Cd6Eu11Sb12
_chemical_formula_sum              "Cd6 Eu11 Sb12"
_cell_length_a       16.3461
_cell_length_b       16.3461
_cell_length_c       12.2274
_cell_angle_alpha    69.4065
_cell_angle_beta     110.593
_cell_angle_gamma    163.387

_space_group_name_H-M_alt    "P 1"
_space_group_IT_number       1

loop_
  _space_group_symop_operation_xyz
  'x, y, z'

loop_
  _atom_site_type_symbol
  _atom_site_label
  _atom_site_symmetry_multiplicity
  _atom_site_fract_x
  _atom_site_fract_y
  _atom_site_fract_z
  _atom_site_occupancy
  Cd  Cd1       1.0  0.22300  0.77700  0.66200  1.0000
  Cd  Cd2       1.0  0.77700  0.22300  0.33800  1.0000
  Cd  Cd3       1.0  0.39500  0.60500  0.24600  1.0000
  Cd  Cd4       1.0  0.60500  0.39500  0.75400  1.0000
  Cd  Cd5       1.0  0.54800  0.45200  0.25000  1.0000
  Cd  Cd6       1.0  0.45200  0.54800  0.75000  1.0000
  Eu  Eu1       1.0  0.27200  0.72800  0.13100  1.0000
  Eu  Eu2       1.0  0.72800  0.27200  0.86900  1.0000
  Eu  Eu3       1.0  0.20000  0.80000  0.34200  1.0000
  Eu  Eu4       1.0  0.80000  0.20000  0.65800  1.0000
  Eu  Eu5       1.0  0.00000  0.00000  0.00000  1.0000
  Eu  Eu6       1.0  0.01950  0.98000  0.68200  1.0000
  Eu  Eu7       1.0  0.98000  0.01950  0.31800  1.0000
  Eu  Eu8       1.0  0.12500  0.87500  0.01300  1.0000
  Eu  Eu9       1.0  0.87500  0.12500  0.98700  1.0000
  Eu  Eu10      1.0  0.11500  0.88500  0.51200  1.0000
  Eu  Eu11      1.0  0.88500  0.11500  0.48800  1.0000
  Sb  Sb1       1.0  0.15800  0.84200  0.79600  1.0000
  Sb  Sb2       1.0  0.84200  0.15800  0.20400  1.0000
  Sb  Sb3       1.0  0.31100  0.68900  0.47800  1.0000
  Sb  Sb4       1.0  0.68900  0.31100  0.52200  1.0000
  Sb  Sb5       1.0  0.09140  0.90900  0.23500  1.0000
  Sb  Sb6       1.0  0.90900  0.09140  0.76500  1.0000
  Sb  Sb7       1.0  0.70000  0.30000  0.13100  1.0000
  Sb  Sb8       1.0  0.30000  0.70000  0.86900  1.0000
  Sb  Sb9       1.0  0.45300  0.54700  0.11100  1.0000
  Sb  Sb10      1.0  0.54700  0.45300  0.88900  1.0000
  Sb  Sb11      1.0  0.45600  0.54400  0.49800  1.0000
  Sb  Sb12      1.0  0.54400  0.45600  0.50200  1.0000
