data_image0
_chemical_formula_structural       Ir2O18P6
_chemical_formula_sum              "Ir2 O18 P6"
_cell_length_a       4.76349
_cell_length_b       6.61129
_cell_length_c       9.76848
_cell_angle_alpha    99.7209
_cell_angle_beta     93.5594
_cell_angle_gamma    92.313

_space_group_name_H-M_alt    "P 1"
_space_group_IT_number       1

loop_
  _space_group_symop_operation_xyz
  'x, y, z'

loop_
  _atom_site_type_symbol
  _atom_site_label
  _atom_site_symmetry_multiplicity
  _atom_site_fract_x
  _atom_site_fract_y
  _atom_site_fract_z
  _atom_site_occupancy
  Ir  Ir1       1.0  0.50000  0.50000  0.50000  1.0000
  Ir  Ir2       1.0  0.50000  0.00000  0.00000  1.0000
  O   O1        1.0  0.95900  0.94100  0.33800  1.0000
  O   O2        1.0  0.04120  0.05920  0.66200  1.0000
  O   O3        1.0  0.02770  0.23200  0.21000  1.0000
  O   O4        1.0  0.97200  0.76800  0.79000  1.0000
  O   O5        1.0  0.35500  0.93900  0.18300  1.0000
  O   O6        1.0  0.64500  0.06130  0.81700  1.0000
  O   O7        1.0  0.85300  0.88000  0.07470  1.0000
  O   O8        1.0  0.14700  0.12000  0.92500  1.0000
  O   O9        1.0  0.39800  0.68800  0.93800  1.0000
  O   O10       1.0  0.60200  0.31200  0.06150  1.0000
  O   O11       1.0  0.42200  0.69200  0.67600  1.0000
  O   O12       1.0  0.57800  0.30800  0.32400  1.0000
  O   O13       1.0  0.67800  0.29800  0.61000  1.0000
  O   O14       1.0  0.32200  0.70200  0.39000  1.0000
  O   O15       1.0  0.12600  0.41800  0.76500  1.0000
  O   O16       1.0  0.87400  0.58200  0.23500  1.0000
  O   O17       1.0  0.15000  0.31300  0.50000  1.0000
  O   O18       1.0  0.85000  0.68700  0.50000  1.0000
  P   P1        1.0  0.25600  0.64600  0.79400  1.0000
  P   P2        1.0  0.74400  0.35400  0.20600  1.0000
  P   P3        1.0  0.05230  0.99200  0.19100  1.0000
  P   P4        1.0  0.94800  0.00802  0.80900  1.0000
  P   P5        1.0  0.99100  0.27900  0.62300  1.0000
  P   P6        1.0  0.00850  0.72100  0.37700  1.0000
