data_image0
_chemical_formula_structural       Cs4Mo4O22
_chemical_formula_sum              "Cs4 Mo4 O22"
_cell_length_a       7.3546
_cell_length_b       8.35356
_cell_length_c       8.47046
_cell_angle_alpha    65.4226
_cell_angle_beta     69.1254
_cell_angle_gamma    83.6915

_space_group_name_H-M_alt    "P 1"
_space_group_IT_number       1

loop_
  _space_group_symop_operation_xyz
  'x, y, z'

loop_
  _atom_site_type_symbol
  _atom_site_label
  _atom_site_symmetry_multiplicity
  _atom_site_fract_x
  _atom_site_fract_y
  _atom_site_fract_z
  _atom_site_occupancy
  Cs  Cs1       1.0  0.33200  0.14600  0.73600  1.0000
  Cs  Cs2       1.0  0.66800  0.85400  0.26400  1.0000
  Cs  Cs3       1.0  0.71500  0.42000  0.85200  1.0000
  Cs  Cs4       1.0  0.28500  0.58000  0.14800  1.0000
  Mo  Mo1       1.0  0.21700  0.62200  0.69300  1.0000
  Mo  Mo2       1.0  0.78300  0.37800  0.30700  1.0000
  Mo  Mo3       1.0  0.83400  0.92300  0.74500  1.0000
  Mo  Mo4       1.0  0.16600  0.07710  0.25500  1.0000
  O   O1        1.0  0.34900  0.55600  0.48400  1.0000
  O   O2        1.0  0.65100  0.44400  0.51600  1.0000
  O   O3        1.0  0.13800  0.56400  0.52300  1.0000
  O   O4        1.0  0.86200  0.43600  0.47700  1.0000
  O   O5        1.0  0.83400  0.95700  0.49400  1.0000
  O   O6        1.0  0.16600  0.04310  0.50600  1.0000
  O   O7        1.0  0.46900  0.70000  0.67800  1.0000
  O   O8        1.0  0.53100  0.30000  0.32200  1.0000
  O   O9        1.0  0.30500  0.78000  0.77400  1.0000
  O   O10       1.0  0.69500  0.22000  0.22600  1.0000
  O   O11       1.0  0.17900  0.42200  0.87800  1.0000
  O   O12       1.0  0.82100  0.57800  0.12200  1.0000
  O   O13       1.0  0.89700  0.10900  0.80400  1.0000
  O   O14       1.0  0.10300  0.89100  0.19600  1.0000
  O   O15       1.0  0.97500  0.93800  0.89200  1.0000
  O   O16       1.0  0.02540  0.06200  0.10800  1.0000
  O   O17       1.0  0.74400  0.10100  0.54700  1.0000
  O   O18       1.0  0.25600  0.89900  0.45300  1.0000
  O   O19       1.0  0.60500  0.84700  0.90500  1.0000
  O   O20       1.0  0.39500  0.15300  0.09520  1.0000
  O   O21       1.0  0.95700  0.71100  0.75500  1.0000
  O   O22       1.0  0.04310  0.28900  0.24500  1.0000
