data_image0
_chemical_formula_structural       Cs18In2O8
_chemical_formula_sum              "Cs18 In2 O8"
_cell_length_a       12.0802
_cell_length_b       12.0802
_cell_length_c       12.0802
_cell_angle_alpha    106.349
_cell_angle_beta     106.349
_cell_angle_gamma    115.915

_space_group_name_H-M_alt    "P 1"
_space_group_IT_number       1

loop_
  _space_group_symop_operation_xyz
  'x, y, z'

loop_
  _atom_site_type_symbol
  _atom_site_label
  _atom_site_symmetry_multiplicity
  _atom_site_fract_x
  _atom_site_fract_y
  _atom_site_fract_z
  _atom_site_occupancy
  Cs  Cs1       1.0  0.08760  0.58800  0.67500  1.0000
  Cs  Cs2       1.0  0.91200  0.41200  0.32500  1.0000
  Cs  Cs3       1.0  0.41200  0.08760  0.50000  1.0000
  Cs  Cs4       1.0  0.58800  0.91200  0.50000  1.0000
  Cs  Cs5       1.0  0.00000  0.00000  0.00000  1.0000
  Cs  Cs6       1.0  0.50000  0.50000  0.00000  1.0000
  Cs  Cs7       1.0  0.25000  0.50500  0.25500  1.0000
  Cs  Cs8       1.0  0.25000  0.99500  0.74500  1.0000
  Cs  Cs9       1.0  0.99500  0.25000  0.74500  1.0000
  Cs  Cs10      1.0  0.50500  0.25000  0.25500  1.0000
  Cs  Cs11      1.0  0.75000  0.49500  0.74500  1.0000
  Cs  Cs12      1.0  0.75000  0.00526  0.25500  1.0000
  Cs  Cs13      1.0  0.00526  0.75000  0.25500  1.0000
  Cs  Cs14      1.0  0.49500  0.75000  0.74500  1.0000
  Cs  Cs15      1.0  0.68100  0.18100  0.86200  1.0000
  Cs  Cs16      1.0  0.31900  0.81900  0.13800  1.0000
  Cs  Cs17      1.0  0.81900  0.68100  0.50000  1.0000
  Cs  Cs18      1.0  0.18100  0.31900  0.50000  1.0000
  In  In1       1.0  0.75000  0.25000  0.50000  1.0000
  In  In2       1.0  0.25000  0.75000  0.50000  1.0000
  O   O1        1.0  0.73400  0.23400  0.66500  1.0000
  O   O2        1.0  0.57000  0.06950  0.33500  1.0000
  O   O3        1.0  0.76600  0.43000  0.50000  1.0000
  O   O4        1.0  0.93000  0.26600  0.50000  1.0000
  O   O5        1.0  0.26600  0.76600  0.33500  1.0000
  O   O6        1.0  0.43000  0.93000  0.66500  1.0000
  O   O7        1.0  0.06950  0.73400  0.50000  1.0000
  O   O8        1.0  0.23400  0.57000  0.50000  1.0000
