data_image0
_chemical_formula_structural       B24F4Li4O36
_chemical_formula_sum              "B24 F4 Li4 O36"
_cell_length_a       7.19183
_cell_length_b       8.23315
_cell_length_c       10.2185
_cell_angle_alpha    90
_cell_angle_beta     90
_cell_angle_gamma    90

_space_group_name_H-M_alt    "P 1"
_space_group_IT_number       1

loop_
  _space_group_symop_operation_xyz
  'x, y, z'

loop_
  _atom_site_type_symbol
  _atom_site_label
  _atom_site_symmetry_multiplicity
  _atom_site_fract_x
  _atom_site_fract_y
  _atom_site_fract_z
  _atom_site_occupancy
  B   B1        1.0  0.92300  0.66500  0.97200  1.0000
  B   B2        1.0  0.07750  0.33500  0.47200  1.0000
  B   B3        1.0  0.57700  0.16500  0.47200  1.0000
  B   B4        1.0  0.42300  0.83500  0.97200  1.0000
  B   B5        1.0  0.39000  0.13900  0.65800  1.0000
  B   B6        1.0  0.61000  0.86100  0.15800  1.0000
  B   B7        1.0  0.11000  0.63900  0.15800  1.0000
  B   B8        1.0  0.89000  0.36100  0.65800  1.0000
  B   B9        1.0  0.14000  0.13600  0.82200  1.0000
  B   B10       1.0  0.86000  0.86400  0.32200  1.0000
  B   B11       1.0  0.36000  0.63600  0.32200  1.0000
  B   B12       1.0  0.64000  0.36400  0.82200  1.0000
  B   B13       1.0  0.92900  0.92500  0.87500  1.0000
  B   B14       1.0  0.07150  0.07470  0.37500  1.0000
  B   B15       1.0  0.57100  0.42500  0.37500  1.0000
  B   B16       1.0  0.42900  0.57500  0.87500  1.0000
  B   B17       1.0  0.07170  0.82800  0.49500  1.0000
  B   B18       1.0  0.92800  0.17200  0.99500  1.0000
  B   B19       1.0  0.42800  0.32800  0.99500  1.0000
  B   B20       1.0  0.57200  0.67200  0.49500  1.0000
  B   B21       1.0  0.62400  0.93400  0.61100  1.0000
  B   B22       1.0  0.37600  0.06610  0.11100  1.0000
  B   B23       1.0  0.87600  0.43400  0.11100  1.0000
  B   B24       1.0  0.12400  0.56600  0.61100  1.0000
  F   F1        1.0  0.78100  0.97200  0.69000  1.0000
  F   F2        1.0  0.21900  0.02780  0.19000  1.0000
  F   F3        1.0  0.71900  0.47200  0.19000  1.0000
  F   F4        1.0  0.28100  0.52800  0.69000  1.0000
  Li  Li1       1.0  0.26900  0.84100  0.72600  1.0000
  Li  Li2       1.0  0.73100  0.15900  0.22600  1.0000
  Li  Li3       1.0  0.23100  0.34100  0.22600  1.0000
  Li  Li4       1.0  0.76900  0.65900  0.72600  1.0000
  O   O1        1.0  0.13000  0.74200  0.59900  1.0000
  O   O2        1.0  0.87000  0.25800  0.09850  1.0000
  O   O3        1.0  0.37000  0.24200  0.09850  1.0000
  O   O4        1.0  0.63000  0.75800  0.59900  1.0000
  O   O5        1.0  0.85200  0.02070  0.97000  1.0000
  O   O6        1.0  0.14800  0.97900  0.47000  1.0000
  O   O7        1.0  0.64800  0.52100  0.47000  1.0000
  O   O8        1.0  0.35200  0.47900  0.97000  1.0000
  O   O9        1.0  0.06570  0.23200  0.91600  1.0000
  O   O10       1.0  0.93400  0.76800  0.41600  1.0000
  O   O11       1.0  0.43400  0.73200  0.41600  1.0000
  O   O12       1.0  0.56600  0.26800  0.91600  1.0000
  O   O13       1.0  0.87500  0.76400  0.86800  1.0000
  O   O14       1.0  0.12500  0.23600  0.36800  1.0000
  O   O15       1.0  0.62500  0.26400  0.36800  1.0000
  O   O16       1.0  0.37500  0.73600  0.86800  1.0000
  O   O17       1.0  0.08040  0.97800  0.80400  1.0000
  O   O18       1.0  0.92000  0.02210  0.30400  1.0000
  O   O19       1.0  0.42000  0.47800  0.30400  1.0000
  O   O20       1.0  0.58000  0.52200  0.80400  1.0000
  O   O21       1.0  0.26100  0.20600  0.73900  1.0000
  O   O22       1.0  0.73900  0.79400  0.23900  1.0000
  O   O23       1.0  0.23900  0.70600  0.23900  1.0000
  O   O24       1.0  0.76100  0.29400  0.73900  1.0000
  O   O25       1.0  0.35400  0.98600  0.98500  1.0000
  O   O26       1.0  0.64600  0.01410  0.48500  1.0000
  O   O27       1.0  0.14600  0.48600  0.48500  1.0000
  O   O28       1.0  0.85400  0.51400  0.98500  1.0000
  O   O29       1.0  0.04730  0.73400  0.05800  1.0000
  O   O30       1.0  0.95300  0.26600  0.55800  1.0000
  O   O31       1.0  0.45300  0.23400  0.55800  1.0000
  O   O32       1.0  0.54700  0.76600  0.05800  1.0000
  O   O33       1.0  0.45700  0.98700  0.68000  1.0000
  O   O34       1.0  0.54300  0.01310  0.18000  1.0000
  O   O35       1.0  0.04260  0.48700  0.18000  1.0000
  O   O36       1.0  0.95700  0.51300  0.68000  1.0000
