data_image0
_chemical_formula_structural       Nd4Ni4O12
_chemical_formula_sum              "Nd4 Ni4 O12"
_cell_length_a       5.39675
_cell_length_b       5.27839
_cell_length_c       7.52768
_cell_angle_alpha    90
_cell_angle_beta     90
_cell_angle_gamma    90

_space_group_name_H-M_alt    "P 1"
_space_group_IT_number       1

loop_
  _space_group_symop_operation_xyz
  'x, y, z'

loop_
  _atom_site_type_symbol
  _atom_site_label
  _atom_site_symmetry_multiplicity
  _atom_site_fract_x
  _atom_site_fract_y
  _atom_site_fract_z
  _atom_site_occupancy
  Nd  Nd1       1.0  0.49400  0.47600  0.75000  1.0000
  Nd  Nd2       1.0  0.99400  0.02380  0.25000  1.0000
  Nd  Nd3       1.0  0.50600  0.52400  0.25000  1.0000
  Nd  Nd4       1.0  0.00567  0.97600  0.75000  1.0000
  Ni  Ni1       1.0  0.50000  0.00000  0.00000  1.0000
  Ni  Ni2       1.0  0.00000  0.50000  0.00000  1.0000
  Ni  Ni3       1.0  0.00000  0.50000  0.50000  1.0000
  Ni  Ni4       1.0  0.50000  0.00000  0.50000  1.0000
  O   O1        1.0  0.73000  0.27200  0.03960  1.0000
  O   O2        1.0  0.23000  0.22800  0.96000  1.0000
  O   O3        1.0  0.77000  0.77200  0.46000  1.0000
  O   O4        1.0  0.27000  0.72800  0.54000  1.0000
  O   O5        1.0  0.27000  0.72800  0.96000  1.0000
  O   O6        1.0  0.77000  0.77200  0.03960  1.0000
  O   O7        1.0  0.23000  0.22800  0.54000  1.0000
  O   O8        1.0  0.73000  0.27200  0.46000  1.0000
  O   O9        1.0  0.07220  0.49700  0.25000  1.0000
  O   O10       1.0  0.57200  0.00292  0.75000  1.0000
  O   O11       1.0  0.42800  0.99700  0.25000  1.0000
  O   O12       1.0  0.92800  0.50300  0.75000  1.0000
