data_image0
_chemical_formula_structural       Cs18O8Sc2
_chemical_formula_sum              "Cs18 O8 Sc2"
_cell_length_a       12.0569
_cell_length_b       12.0569
_cell_length_c       12.0569
_cell_angle_alpha    105.949
_cell_angle_beta     105.949
_cell_angle_gamma    116.771

_space_group_name_H-M_alt    "P 1"
_space_group_IT_number       1

loop_
  _space_group_symop_operation_xyz
  'x, y, z'

loop_
  _atom_site_type_symbol
  _atom_site_label
  _atom_site_symmetry_multiplicity
  _atom_site_fract_x
  _atom_site_fract_y
  _atom_site_fract_z
  _atom_site_occupancy
  Cs  Cs1       1.0  0.08740  0.58700  0.67500  1.0000
  Cs  Cs2       1.0  0.91300  0.41300  0.32500  1.0000
  Cs  Cs3       1.0  0.41300  0.08740  0.50000  1.0000
  Cs  Cs4       1.0  0.58700  0.91300  0.50000  1.0000
  Cs  Cs5       1.0  0.00000  0.00000  0.00000  1.0000
  Cs  Cs6       1.0  0.50000  0.50000  0.00000  1.0000
  Cs  Cs7       1.0  0.25000  0.50400  0.25400  1.0000
  Cs  Cs8       1.0  0.25000  0.99600  0.74600  1.0000
  Cs  Cs9       1.0  0.99600  0.25000  0.74600  1.0000
  Cs  Cs10      1.0  0.50400  0.25000  0.25400  1.0000
  Cs  Cs11      1.0  0.75000  0.49600  0.74600  1.0000
  Cs  Cs12      1.0  0.75000  0.00390  0.25400  1.0000
  Cs  Cs13      1.0  0.00390  0.75000  0.25400  1.0000
  Cs  Cs14      1.0  0.49600  0.75000  0.74600  1.0000
  Cs  Cs15      1.0  0.68000  0.18000  0.85900  1.0000
  Cs  Cs16      1.0  0.32000  0.82000  0.14100  1.0000
  Cs  Cs17      1.0  0.82000  0.68000  0.50000  1.0000
  Cs  Cs18      1.0  0.18000  0.32000  0.50000  1.0000
  O   O1        1.0  0.73700  0.23700  0.65800  1.0000
  O   O2        1.0  0.57800  0.07840  0.34200  1.0000
  O   O3        1.0  0.76300  0.42200  0.50000  1.0000
  O   O4        1.0  0.92200  0.26300  0.50000  1.0000
  O   O5        1.0  0.26300  0.76300  0.34200  1.0000
  O   O6        1.0  0.42200  0.92200  0.65800  1.0000
  O   O7        1.0  0.07840  0.73700  0.50000  1.0000
  O   O8        1.0  0.23700  0.57800  0.50000  1.0000
  Sc  Sc1       1.0  0.75000  0.25000  0.50000  1.0000
  Sc  Sc2       1.0  0.25000  0.75000  0.50000  1.0000
