data_image0
_chemical_formula_structural       Br15C4Pr10
_chemical_formula_sum              "Br15 C4 Pr10"
_cell_length_a       9.26231
_cell_length_b       10.2763
_cell_length_c       11.2049
_cell_angle_alpha    70.1
_cell_angle_beta     66.2788
_cell_angle_gamma    70.7219

_space_group_name_H-M_alt    "P 1"
_space_group_IT_number       1

loop_
  _space_group_symop_operation_xyz
  'x, y, z'

loop_
  _atom_site_type_symbol
  _atom_site_label
  _atom_site_symmetry_multiplicity
  _atom_site_fract_x
  _atom_site_fract_y
  _atom_site_fract_z
  _atom_site_occupancy
  Br  Br1       1.0  0.50000  0.50000  0.00000  1.0000
  Br  Br2       1.0  0.13600  0.81300  0.46700  1.0000
  Br  Br3       1.0  0.86400  0.18700  0.53300  1.0000
  Br  Br4       1.0  0.25400  0.02870  0.64500  1.0000
  Br  Br5       1.0  0.74600  0.97100  0.35500  1.0000
  Br  Br6       1.0  0.33600  0.16800  0.22200  1.0000
  Br  Br7       1.0  0.66400  0.83200  0.77800  1.0000
  Br  Br8       1.0  0.45300  0.36700  0.41400  1.0000
  Br  Br9       1.0  0.54700  0.63300  0.58600  1.0000
  Br  Br10      1.0  0.94700  0.44500  0.70300  1.0000
  Br  Br11      1.0  0.05340  0.55500  0.29700  1.0000
  Br  Br12      1.0  0.23100  0.90900  0.06090  1.0000
  Br  Br13      1.0  0.76900  0.09130  0.93900  1.0000
  Br  Br14      1.0  0.38800  0.27100  0.81800  1.0000
  Br  Br15      1.0  0.61200  0.72900  0.18200  1.0000
  C   C1        1.0  0.88000  0.36000  0.17100  1.0000
  C   C2        1.0  0.12000  0.64000  0.82900  1.0000
  C   C3        1.0  0.95600  0.29600  0.06170  1.0000
  C   C4        1.0  0.04420  0.70400  0.93800  1.0000
  Pr  Pr1       1.0  0.33300  0.75200  0.83000  1.0000
  Pr  Pr2       1.0  0.66700  0.24800  0.17000  1.0000
  Pr  Pr3       1.0  0.17000  0.43000  0.04610  1.0000
  Pr  Pr4       1.0  0.83000  0.57000  0.95400  1.0000
  Pr  Pr5       1.0  0.07900  0.18100  0.88700  1.0000
  Pr  Pr6       1.0  0.92100  0.81900  0.11300  1.0000
  Pr  Pr7       1.0  0.24700  0.54000  0.64600  1.0000
  Pr  Pr8       1.0  0.75300  0.46000  0.35400  1.0000
  Pr  Pr9       1.0  0.02760  0.10500  0.26600  1.0000
  Pr  Pr10      1.0  0.97200  0.89500  0.73400  1.0000
