data_image0
_chemical_formula_structural       CsMo2Na3O20U4
_chemical_formula_sum              "Cs1 Mo2 Na3 O20 U4"
_cell_length_a       5.91167
_cell_length_b       6.89219
_cell_length_c       11.2406
_cell_angle_alpha    84.6133
_cell_angle_beta     76.221
_cell_angle_gamma    79.0106

_space_group_name_H-M_alt    "P 1"
_space_group_IT_number       1

loop_
  _space_group_symop_operation_xyz
  'x, y, z'

loop_
  _atom_site_type_symbol
  _atom_site_label
  _atom_site_symmetry_multiplicity
  _atom_site_fract_x
  _atom_site_fract_y
  _atom_site_fract_z
  _atom_site_occupancy
  Cs  Cs1       1.0  0.00000  0.50000  0.00000  1.0000
  Mo  Mo1       1.0  0.63300  0.16700  0.90500  1.0000
  Mo  Mo2       1.0  0.36700  0.83300  0.09530  1.0000
  Na  Na1       1.0  0.00000  0.50000  0.50000  1.0000
  Na  Na2       1.0  0.04510  0.98900  0.67000  1.0000
  Na  Na3       1.0  0.95500  0.01070  0.33000  1.0000
  O   O1        1.0  0.93100  0.11800  0.90600  1.0000
  O   O2        1.0  0.06950  0.88200  0.09410  1.0000
  O   O3        1.0  0.16000  0.81200  0.48500  1.0000
  O   O4        1.0  0.84000  0.18800  0.51500  1.0000
  O   O5        1.0  0.57600  0.43000  0.87900  1.0000
  O   O6        1.0  0.42400  0.57000  0.12100  1.0000
  O   O7        1.0  0.24100  0.76700  0.82000  1.0000
  O   O8        1.0  0.75900  0.23300  0.18000  1.0000
  O   O9        1.0  0.44200  0.45900  0.39500  1.0000
  O   O10       1.0  0.55800  0.54100  0.60500  1.0000
  O   O11       1.0  0.87700  0.69300  0.70400  1.0000
  O   O12       1.0  0.12300  0.30700  0.29600  1.0000
  O   O13       1.0  0.60400  0.09290  0.75900  1.0000
  O   O14       1.0  0.39600  0.90700  0.24100  1.0000
  O   O15       1.0  0.80700  0.70700  0.37000  1.0000
  O   O16       1.0  0.19300  0.29300  0.63000  1.0000
  O   O17       1.0  0.46900  0.92200  0.60400  1.0000
  O   O18       1.0  0.53100  0.07850  0.39600  1.0000
  O   O19       1.0  0.40300  0.15500  0.05300  1.0000
  O   O20       1.0  0.59700  0.84500  0.94700  1.0000
  U   U1        1.0  0.48500  0.75900  0.43400  1.0000
  U   U2        1.0  0.51500  0.24100  0.56600  1.0000
  U   U3        1.0  0.55800  0.73000  0.75800  1.0000
  U   U4        1.0  0.44200  0.27000  0.24200  1.0000
