data_image0
_chemical_formula_structural       Br6C12La10
_chemical_formula_sum              "Br6 C12 La10"
_cell_length_a       11.6163
_cell_length_b       11.6163
_cell_length_c       16.6095
_cell_angle_alpha    57.0959
_cell_angle_beta     122.904
_cell_angle_gamma    160.199

_space_group_name_H-M_alt    "P 1"
_space_group_IT_number       1

loop_
  _space_group_symop_operation_xyz
  'x, y, z'

loop_
  _atom_site_type_symbol
  _atom_site_label
  _atom_site_symmetry_multiplicity
  _atom_site_fract_x
  _atom_site_fract_y
  _atom_site_fract_z
  _atom_site_occupancy
  Br  Br1       1.0  0.98500  0.01510  0.23900  1.0000
  Br  Br2       1.0  0.01510  0.98500  0.76100  1.0000
  Br  Br3       1.0  0.66800  0.33200  0.00780  1.0000
  Br  Br4       1.0  0.33200  0.66800  0.99200  1.0000
  Br  Br5       1.0  0.33100  0.66900  0.24700  1.0000
  Br  Br6       1.0  0.66900  0.33100  0.75300  1.0000
  C   C1        1.0  0.96500  0.03500  0.47800  1.0000
  C   C2        1.0  0.03500  0.96500  0.52200  1.0000
  C   C3        1.0  0.03510  0.96500  0.03280  1.0000
  C   C4        1.0  0.96500  0.03510  0.96700  1.0000
  C   C5        1.0  0.69600  0.30400  0.28200  1.0000
  C   C6        1.0  0.30400  0.69600  0.71800  1.0000
  C   C7        1.0  0.62700  0.37300  0.22700  1.0000
  C   C8        1.0  0.37300  0.62700  0.77300  1.0000
  C   C9        1.0  0.63000  0.37000  0.46700  1.0000
  C   C10       1.0  0.37000  0.63000  0.53300  1.0000
  C   C11       1.0  0.30100  0.69900  0.48300  1.0000
  C   C12       1.0  0.69900  0.30100  0.51700  1.0000
  La  La1       1.0  0.16200  0.83800  0.14300  1.0000
  La  La2       1.0  0.83800  0.16200  0.85700  1.0000
  La  La3       1.0  0.49900  0.50100  0.39400  1.0000
  La  La4       1.0  0.50100  0.49900  0.60600  1.0000
  La  La5       1.0  0.17000  0.83000  0.37900  1.0000
  La  La6       1.0  0.83000  0.17000  0.62100  1.0000
  La  La7       1.0  0.83400  0.16600  0.39600  1.0000
  La  La8       1.0  0.16600  0.83400  0.60400  1.0000
  La  La9       1.0  0.49700  0.50300  0.10200  1.0000
  La  La10      1.0  0.50300  0.49700  0.89800  1.0000
