data_image0
_chemical_formula_structural       Br6C12Ce10
_chemical_formula_sum              "Br6 C12 Ce10"
_cell_length_a       11.6373
_cell_length_b       11.6373
_cell_length_c       16.669
_cell_angle_alpha    57.0523
_cell_angle_beta     122.948
_cell_angle_gamma    160.385

_space_group_name_H-M_alt    "P 1"
_space_group_IT_number       1

loop_
  _space_group_symop_operation_xyz
  'x, y, z'

loop_
  _atom_site_type_symbol
  _atom_site_label
  _atom_site_symmetry_multiplicity
  _atom_site_fract_x
  _atom_site_fract_y
  _atom_site_fract_z
  _atom_site_occupancy
  Br  Br1       1.0  0.66900  0.33100  0.01050  1.0000
  Br  Br2       1.0  0.01800  0.98200  0.76300  1.0000
  Br  Br3       1.0  0.98200  0.01800  0.23700  1.0000
  Br  Br4       1.0  0.33100  0.66900  0.99000  1.0000
  Br  Br5       1.0  0.33000  0.67000  0.24800  1.0000
  Br  Br6       1.0  0.67000  0.33000  0.75200  1.0000
  C   C1        1.0  0.03480  0.96500  0.03270  1.0000
  C   C2        1.0  0.96500  0.03480  0.96700  1.0000
  C   C3        1.0  0.62800  0.37200  0.22900  1.0000
  C   C4        1.0  0.37200  0.62800  0.77100  1.0000
  C   C5        1.0  0.63000  0.37000  0.46600  1.0000
  C   C6        1.0  0.37000  0.63000  0.53400  1.0000
  C   C7        1.0  0.96500  0.03480  0.47700  1.0000
  C   C8        1.0  0.03480  0.96500  0.52300  1.0000
  C   C9        1.0  0.69600  0.30400  0.28200  1.0000
  C   C10       1.0  0.30400  0.69600  0.71800  1.0000
  C   C11       1.0  0.30200  0.69800  0.48300  1.0000
  C   C12       1.0  0.69800  0.30200  0.51700  1.0000
  Ce  Ce1       1.0  0.49900  0.50100  0.39400  1.0000
  Ce  Ce2       1.0  0.50100  0.49900  0.60600  1.0000
  Ce  Ce3       1.0  0.16100  0.83900  0.14400  1.0000
  Ce  Ce4       1.0  0.83900  0.16100  0.85600  1.0000
  Ce  Ce5       1.0  0.49700  0.50300  0.10300  1.0000
  Ce  Ce6       1.0  0.50300  0.49700  0.89700  1.0000
  Ce  Ce7       1.0  0.83400  0.16600  0.39700  1.0000
  Ce  Ce8       1.0  0.16600  0.83400  0.60300  1.0000
  Ce  Ce9       1.0  0.17100  0.82900  0.38000  1.0000
  Ce  Ce10      1.0  0.82900  0.17100  0.62000  1.0000
