data_image0
_chemical_formula_structural       Cl12O2S12Ta4U2
_chemical_formula_sum              "Cl12 O2 S12 Ta4 U2"
_cell_length_a       6.97828
_cell_length_b       9.68004
_cell_length_c       12.8751
_cell_angle_alpha    84.3842
_cell_angle_beta     83.0201
_cell_angle_gamma    88.9227

_space_group_name_H-M_alt    "P 1"
_space_group_IT_number       1

loop_
  _space_group_symop_operation_xyz
  'x, y, z'

loop_
  _atom_site_type_symbol
  _atom_site_label
  _atom_site_symmetry_multiplicity
  _atom_site_fract_x
  _atom_site_fract_y
  _atom_site_fract_z
  _atom_site_occupancy
  Cl  Cl1       1.0  0.40500  0.65600  0.00350  1.0000
  Cl  Cl2       1.0  0.59500  0.34400  0.99600  1.0000
  Cl  Cl3       1.0  0.49500  0.06500  0.83400  1.0000
  Cl  Cl4       1.0  0.50500  0.93500  0.16600  1.0000
  Cl  Cl5       1.0  0.30300  0.34500  0.53800  1.0000
  Cl  Cl6       1.0  0.69700  0.65500  0.46200  1.0000
  Cl  Cl7       1.0  0.69300  0.29600  0.35700  1.0000
  Cl  Cl8       1.0  0.30700  0.70400  0.64300  1.0000
  Cl  Cl9       1.0  0.10700  0.42700  0.89900  1.0000
  Cl  Cl10      1.0  0.89300  0.57300  0.10100  1.0000
  Cl  Cl11      1.0  0.02980  0.85800  0.26200  1.0000
  Cl  Cl12      1.0  0.97000  0.14200  0.73800  1.0000
  O   O1        1.0  0.35100  0.23900  0.21900  1.0000
  O   O2        1.0  0.64900  0.76100  0.78100  1.0000
  S   S1        1.0  0.07580  0.13200  0.40100  1.0000
  S   S2        1.0  0.92400  0.86800  0.59900  1.0000
  S   S3        1.0  0.17500  0.12300  0.04140  1.0000
  S   S4        1.0  0.82500  0.87700  0.95900  1.0000
  S   S5        1.0  0.95600  0.19100  0.15100  1.0000
  S   S6        1.0  0.04370  0.80900  0.84900  1.0000
  S   S7        1.0  0.38900  0.53700  0.26900  1.0000
  S   S8        1.0  0.61100  0.46300  0.73100  1.0000
  S   S9        1.0  0.10400  0.47200  0.31000  1.0000
  S   S10       1.0  0.89600  0.52800  0.69000  1.0000
  S   S11       1.0  0.34300  0.03640  0.40900  1.0000
  S   S12       1.0  0.65700  0.96400  0.59100  1.0000
  Ta  Ta1       1.0  0.22300  0.05330  0.22500  1.0000
  Ta  Ta2       1.0  0.77700  0.94700  0.77500  1.0000
  Ta  Ta3       1.0  0.35100  0.30300  0.36300  1.0000
  Ta  Ta4       1.0  0.64900  0.69700  0.63700  1.0000
  U   U1        1.0  0.23400  0.40700  0.09760  1.0000
  U   U2        1.0  0.76600  0.59300  0.90200  1.0000
