data_image0
_chemical_formula_structural       I4Se16Tc12
_chemical_formula_sum              "I4 Se16 Tc12"
_cell_length_a       6.59714
_cell_length_b       12.0094
_cell_length_c       9.96556
_cell_angle_alpha    90
_cell_angle_beta     99.0851
_cell_angle_gamma    90

_space_group_name_H-M_alt    "P 1"
_space_group_IT_number       1

loop_
  _space_group_symop_operation_xyz
  'x, y, z'

loop_
  _atom_site_type_symbol
  _atom_site_label
  _atom_site_symmetry_multiplicity
  _atom_site_fract_x
  _atom_site_fract_y
  _atom_site_fract_z
  _atom_site_occupancy
  I   I1        1.0  0.18900  0.62700  0.07540  1.0000
  I   I2        1.0  0.31100  0.12700  0.42500  1.0000
  I   I3        1.0  0.81100  0.37300  0.92500  1.0000
  I   I4        1.0  0.68900  0.87300  0.57500  1.0000
  Se  Se1       1.0  0.26800  0.20900  0.05170  1.0000
  Se  Se2       1.0  0.23200  0.70900  0.44800  1.0000
  Se  Se3       1.0  0.73200  0.79100  0.94800  1.0000
  Se  Se4       1.0  0.76800  0.29100  0.55200  1.0000
  Se  Se5       1.0  0.95800  0.88900  0.27000  1.0000
  Se  Se6       1.0  0.54200  0.38900  0.23000  1.0000
  Se  Se7       1.0  0.04210  0.11100  0.73000  1.0000
  Se  Se8       1.0  0.45800  0.61100  0.77000  1.0000
  Se  Se9       1.0  0.20000  0.84000  0.81700  1.0000
  Se  Se10      1.0  0.30000  0.34000  0.68300  1.0000
  Se  Se11      1.0  0.80000  0.16000  0.18300  1.0000
  Se  Se12      1.0  0.70000  0.66000  0.31700  1.0000
  Se  Se13      1.0  0.42400  0.92700  0.16500  1.0000
  Se  Se14      1.0  0.07610  0.42700  0.33500  1.0000
  Se  Se15      1.0  0.57600  0.07330  0.83500  1.0000
  Se  Se16      1.0  0.92400  0.57300  0.66500  1.0000
  Tc  Tc1       1.0  0.08360  0.85400  0.04700  1.0000
  Tc  Tc2       1.0  0.41600  0.35400  0.45300  1.0000
  Tc  Tc3       1.0  0.91600  0.14600  0.95300  1.0000
  Tc  Tc4       1.0  0.58400  0.64600  0.54700  1.0000
  Tc  Tc5       1.0  0.24600  0.02400  0.93700  1.0000
  Tc  Tc6       1.0  0.25400  0.52400  0.56300  1.0000
  Tc  Tc7       1.0  0.75400  0.97600  0.06300  1.0000
  Tc  Tc8       1.0  0.74600  0.47600  0.43700  1.0000
  Tc  Tc9       1.0  0.12000  0.05230  0.17100  1.0000
  Tc  Tc10      1.0  0.38000  0.55200  0.32900  1.0000
  Tc  Tc11      1.0  0.88000  0.94800  0.82900  1.0000
  Tc  Tc12      1.0  0.62000  0.44800  0.67100  1.0000
