data_image0
_chemical_formula_structural       Ca12Li24N48Si24
_chemical_formula_sum              "Ca12 Li24 N48 Si24"
_cell_length_a       10.5189
_cell_length_b       10.5189
_cell_length_c       10.5189
_cell_angle_alpha    90
_cell_angle_beta     90
_cell_angle_gamma    90

_space_group_name_H-M_alt    "P 1"
_space_group_IT_number       1

loop_
  _space_group_symop_operation_xyz
  'x, y, z'

loop_
  _atom_site_type_symbol
  _atom_site_label
  _atom_site_symmetry_multiplicity
  _atom_site_fract_x
  _atom_site_fract_y
  _atom_site_fract_z
  _atom_site_occupancy
  Ca  Ca1       1.0  0.50000  0.00000  0.00000  1.0000
  Ca  Ca2       1.0  0.00000  0.00000  0.50000  1.0000
  Ca  Ca3       1.0  0.00000  0.50000  0.00000  1.0000
  Ca  Ca4       1.0  0.50000  0.50000  0.50000  1.0000
  Ca  Ca5       1.0  0.20400  0.20400  0.20400  1.0000
  Ca  Ca6       1.0  0.29600  0.79600  0.70400  1.0000
  Ca  Ca7       1.0  0.70400  0.29600  0.79600  1.0000
  Ca  Ca8       1.0  0.79600  0.70400  0.29600  1.0000
  Ca  Ca9       1.0  0.79600  0.79600  0.79600  1.0000
  Ca  Ca10      1.0  0.70400  0.20400  0.29600  1.0000
  Ca  Ca11      1.0  0.29600  0.70400  0.20400  1.0000
  Ca  Ca12      1.0  0.20400  0.29600  0.70400  1.0000
  Li  Li1       1.0  0.22300  0.95100  0.11600  1.0000
  Li  Li2       1.0  0.27700  0.04930  0.61600  1.0000
  Li  Li3       1.0  0.72300  0.54900  0.88400  1.0000
  Li  Li4       1.0  0.77700  0.45100  0.38400  1.0000
  Li  Li5       1.0  0.11600  0.22300  0.95100  1.0000
  Li  Li6       1.0  0.95100  0.11600  0.22300  1.0000
  Li  Li7       1.0  0.38400  0.77700  0.45100  1.0000
  Li  Li8       1.0  0.04930  0.61600  0.27700  1.0000
  Li  Li9       1.0  0.61600  0.27700  0.04930  1.0000
  Li  Li10      1.0  0.54900  0.88400  0.72300  1.0000
  Li  Li11      1.0  0.88400  0.72300  0.54900  1.0000
  Li  Li12      1.0  0.45100  0.38400  0.77700  1.0000
  Li  Li13      1.0  0.77700  0.04930  0.88400  1.0000
  Li  Li14      1.0  0.72300  0.95100  0.38400  1.0000
  Li  Li15      1.0  0.27700  0.45100  0.11600  1.0000
  Li  Li16      1.0  0.22300  0.54900  0.61600  1.0000
  Li  Li17      1.0  0.88400  0.77700  0.04930  1.0000
  Li  Li18      1.0  0.04930  0.88400  0.77700  1.0000
  Li  Li19      1.0  0.61600  0.22300  0.54900  1.0000
  Li  Li20      1.0  0.95100  0.38400  0.72300  1.0000
  Li  Li21      1.0  0.38400  0.72300  0.95100  1.0000
  Li  Li22      1.0  0.45100  0.11600  0.27700  1.0000
  Li  Li23      1.0  0.11600  0.27700  0.45100  1.0000
  Li  Li24      1.0  0.54900  0.61600  0.22300  1.0000
  N   N1        1.0  0.28200  0.10700  0.00621  1.0000
  N   N2        1.0  0.21800  0.89300  0.50600  1.0000
  N   N3        1.0  0.78200  0.39300  0.99400  1.0000
  N   N4        1.0  0.71800  0.60700  0.49400  1.0000
  N   N5        1.0  0.00621  0.28200  0.10700  1.0000
  N   N6        1.0  0.10700  0.00621  0.28200  1.0000
  N   N7        1.0  0.49400  0.71800  0.60700  1.0000
  N   N8        1.0  0.89300  0.50600  0.21800  1.0000
  N   N9        1.0  0.50600  0.21800  0.89300  1.0000
  N   N10       1.0  0.39300  0.99400  0.78200  1.0000
  N   N11       1.0  0.99400  0.78200  0.39300  1.0000
  N   N12       1.0  0.60700  0.49400  0.71800  1.0000
  N   N13       1.0  0.71800  0.89300  0.99400  1.0000
  N   N14       1.0  0.78200  0.10700  0.49400  1.0000
  N   N15       1.0  0.21800  0.60700  0.00621  1.0000
  N   N16       1.0  0.28200  0.39300  0.50600  1.0000
  N   N17       1.0  0.99400  0.71800  0.89300  1.0000
  N   N18       1.0  0.89300  0.99400  0.71800  1.0000
  N   N19       1.0  0.50600  0.28200  0.39300  1.0000
  N   N20       1.0  0.10700  0.49400  0.78200  1.0000
  N   N21       1.0  0.49400  0.78200  0.10700  1.0000
  N   N22       1.0  0.60700  0.00621  0.21800  1.0000
  N   N23       1.0  0.00621  0.21800  0.60700  1.0000
  N   N24       1.0  0.39300  0.50600  0.28200  1.0000
  N   N25       1.0  0.27500  0.14100  0.42200  1.0000
  N   N26       1.0  0.22500  0.85900  0.92200  1.0000
  N   N27       1.0  0.77500  0.35900  0.57800  1.0000
  N   N28       1.0  0.72500  0.64100  0.07830  1.0000
  N   N29       1.0  0.42200  0.27500  0.14100  1.0000
  N   N30       1.0  0.14100  0.42200  0.27500  1.0000
  N   N31       1.0  0.07830  0.72500  0.64100  1.0000
  N   N32       1.0  0.85900  0.92200  0.22500  1.0000
  N   N33       1.0  0.92200  0.22500  0.85900  1.0000
  N   N34       1.0  0.35900  0.57800  0.77500  1.0000
  N   N35       1.0  0.57800  0.77500  0.35900  1.0000
  N   N36       1.0  0.64100  0.07830  0.72500  1.0000
  N   N37       1.0  0.72500  0.85900  0.57800  1.0000
  N   N38       1.0  0.77500  0.14100  0.07830  1.0000
  N   N39       1.0  0.22500  0.64100  0.42200  1.0000
  N   N40       1.0  0.27500  0.35900  0.92200  1.0000
  N   N41       1.0  0.57800  0.72500  0.85900  1.0000
  N   N42       1.0  0.85900  0.57800  0.72500  1.0000
  N   N43       1.0  0.92200  0.27500  0.35900  1.0000
  N   N44       1.0  0.14100  0.07830  0.77500  1.0000
  N   N45       1.0  0.07830  0.77500  0.14100  1.0000
  N   N46       1.0  0.64100  0.42200  0.22500  1.0000
  N   N47       1.0  0.42200  0.22500  0.64100  1.0000
  N   N48       1.0  0.35900  0.92200  0.27500  1.0000
  Si  Si1       1.0  0.48600  0.37300  0.25300  1.0000
  Si  Si2       1.0  0.01350  0.62700  0.75300  1.0000
  Si  Si3       1.0  0.98600  0.12700  0.74700  1.0000
  Si  Si4       1.0  0.51400  0.87300  0.24700  1.0000
  Si  Si5       1.0  0.25300  0.48600  0.37300  1.0000
  Si  Si6       1.0  0.37300  0.25300  0.48600  1.0000
  Si  Si7       1.0  0.24700  0.51400  0.87300  1.0000
  Si  Si8       1.0  0.62700  0.75300  0.01350  1.0000
  Si  Si9       1.0  0.75300  0.01350  0.62700  1.0000
  Si  Si10      1.0  0.12700  0.74700  0.98600  1.0000
  Si  Si11      1.0  0.74700  0.98600  0.12700  1.0000
  Si  Si12      1.0  0.87300  0.24700  0.51400  1.0000
  Si  Si13      1.0  0.51400  0.62700  0.74700  1.0000
  Si  Si14      1.0  0.98600  0.37300  0.24700  1.0000
  Si  Si15      1.0  0.01350  0.87300  0.25300  1.0000
  Si  Si16      1.0  0.48600  0.12700  0.75300  1.0000
  Si  Si17      1.0  0.74700  0.51400  0.62700  1.0000
  Si  Si18      1.0  0.62700  0.74700  0.51400  1.0000
  Si  Si19      1.0  0.75300  0.48600  0.12700  1.0000
  Si  Si20      1.0  0.37300  0.24700  0.98600  1.0000
  Si  Si21      1.0  0.24700  0.98600  0.37300  1.0000
  Si  Si22      1.0  0.87300  0.25300  0.01350  1.0000
  Si  Si23      1.0  0.25300  0.01350  0.87300  1.0000
  Si  Si24      1.0  0.12700  0.75300  0.48600  1.0000
