data_image0
_chemical_formula_structural       Li24N48Si24Sr12
_chemical_formula_sum              "Li24 N48 Si24 Sr12"
_cell_length_a       10.6713
_cell_length_b       10.6713
_cell_length_c       10.6713
_cell_angle_alpha    90
_cell_angle_beta     90
_cell_angle_gamma    90

_space_group_name_H-M_alt    "P 1"
_space_group_IT_number       1

loop_
  _space_group_symop_operation_xyz
  'x, y, z'

loop_
  _atom_site_type_symbol
  _atom_site_label
  _atom_site_symmetry_multiplicity
  _atom_site_fract_x
  _atom_site_fract_y
  _atom_site_fract_z
  _atom_site_occupancy
  Li  Li1       1.0  0.23300  0.97400  0.11100  1.0000
  Li  Li2       1.0  0.26700  0.02640  0.61100  1.0000
  Li  Li3       1.0  0.73300  0.52600  0.88900  1.0000
  Li  Li4       1.0  0.76700  0.47400  0.38900  1.0000
  Li  Li5       1.0  0.11100  0.23300  0.97400  1.0000
  Li  Li6       1.0  0.97400  0.11100  0.23300  1.0000
  Li  Li7       1.0  0.38900  0.76700  0.47400  1.0000
  Li  Li8       1.0  0.02640  0.61100  0.26700  1.0000
  Li  Li9       1.0  0.61100  0.26700  0.02640  1.0000
  Li  Li10      1.0  0.52600  0.88900  0.73300  1.0000
  Li  Li11      1.0  0.88900  0.73300  0.52600  1.0000
  Li  Li12      1.0  0.47400  0.38900  0.76700  1.0000
  Li  Li13      1.0  0.76700  0.02640  0.88900  1.0000
  Li  Li14      1.0  0.73300  0.97400  0.38900  1.0000
  Li  Li15      1.0  0.26700  0.47400  0.11100  1.0000
  Li  Li16      1.0  0.23300  0.52600  0.61100  1.0000
  Li  Li17      1.0  0.88900  0.76700  0.02640  1.0000
  Li  Li18      1.0  0.02640  0.88900  0.76700  1.0000
  Li  Li19      1.0  0.61100  0.23300  0.52600  1.0000
  Li  Li20      1.0  0.97400  0.38900  0.73300  1.0000
  Li  Li21      1.0  0.38900  0.73300  0.97400  1.0000
  Li  Li22      1.0  0.47400  0.11100  0.26700  1.0000
  Li  Li23      1.0  0.11100  0.26700  0.47400  1.0000
  Li  Li24      1.0  0.52600  0.61100  0.23300  1.0000
  N   N1        1.0  0.27200  0.12400  0.99300  1.0000
  N   N2        1.0  0.22800  0.87600  0.49300  1.0000
  N   N3        1.0  0.77200  0.37600  0.00656  1.0000
  N   N4        1.0  0.72800  0.62400  0.50700  1.0000
  N   N5        1.0  0.99300  0.27200  0.12400  1.0000
  N   N6        1.0  0.12400  0.99300  0.27200  1.0000
  N   N7        1.0  0.50700  0.72800  0.62400  1.0000
  N   N8        1.0  0.87600  0.49300  0.22800  1.0000
  N   N9        1.0  0.49300  0.22800  0.87600  1.0000
  N   N10       1.0  0.37600  0.00656  0.77200  1.0000
  N   N11       1.0  0.00656  0.77200  0.37600  1.0000
  N   N12       1.0  0.62400  0.50700  0.72800  1.0000
  N   N13       1.0  0.72800  0.87600  0.00656  1.0000
  N   N14       1.0  0.77200  0.12400  0.50700  1.0000
  N   N15       1.0  0.22800  0.62400  0.99300  1.0000
  N   N16       1.0  0.27200  0.37600  0.49300  1.0000
  N   N17       1.0  0.00656  0.72800  0.87600  1.0000
  N   N18       1.0  0.87600  0.00656  0.72800  1.0000
  N   N19       1.0  0.49300  0.27200  0.37600  1.0000
  N   N20       1.0  0.12400  0.50700  0.77200  1.0000
  N   N21       1.0  0.50700  0.77200  0.12400  1.0000
  N   N22       1.0  0.62400  0.99300  0.22800  1.0000
  N   N23       1.0  0.99300  0.22800  0.62400  1.0000
  N   N24       1.0  0.37600  0.49300  0.27200  1.0000
  N   N25       1.0  0.26700  0.12600  0.44400  1.0000
  N   N26       1.0  0.23300  0.87400  0.94400  1.0000
  N   N27       1.0  0.76700  0.37400  0.55600  1.0000
  N   N28       1.0  0.73300  0.62600  0.05560  1.0000
  N   N29       1.0  0.44400  0.26700  0.12600  1.0000
  N   N30       1.0  0.12600  0.44400  0.26700  1.0000
  N   N31       1.0  0.05560  0.73300  0.62600  1.0000
  N   N32       1.0  0.87400  0.94400  0.23300  1.0000
  N   N33       1.0  0.94400  0.23300  0.87400  1.0000
  N   N34       1.0  0.37400  0.55600  0.76700  1.0000
  N   N35       1.0  0.55600  0.76700  0.37400  1.0000
  N   N36       1.0  0.62600  0.05560  0.73300  1.0000
  N   N37       1.0  0.73300  0.87400  0.55600  1.0000
  N   N38       1.0  0.76700  0.12600  0.05560  1.0000
  N   N39       1.0  0.23300  0.62600  0.44400  1.0000
  N   N40       1.0  0.26700  0.37400  0.94400  1.0000
  N   N41       1.0  0.55600  0.73300  0.87400  1.0000
  N   N42       1.0  0.87400  0.55600  0.73300  1.0000
  N   N43       1.0  0.94400  0.26700  0.37400  1.0000
  N   N44       1.0  0.12600  0.05560  0.76700  1.0000
  N   N45       1.0  0.05560  0.76700  0.12600  1.0000
  N   N46       1.0  0.62600  0.44400  0.23300  1.0000
  N   N47       1.0  0.44400  0.23300  0.62600  1.0000
  N   N48       1.0  0.37400  0.94400  0.26700  1.0000
  Si  Si1       1.0  0.48000  0.37200  0.24400  1.0000
  Si  Si2       1.0  0.01960  0.62800  0.74400  1.0000
  Si  Si3       1.0  0.98000  0.12800  0.75600  1.0000
  Si  Si4       1.0  0.52000  0.87200  0.25600  1.0000
  Si  Si5       1.0  0.24400  0.48000  0.37200  1.0000
  Si  Si6       1.0  0.37200  0.24400  0.48000  1.0000
  Si  Si7       1.0  0.25600  0.52000  0.87200  1.0000
  Si  Si8       1.0  0.62800  0.74400  0.01960  1.0000
  Si  Si9       1.0  0.74400  0.01960  0.62800  1.0000
  Si  Si10      1.0  0.12800  0.75600  0.98000  1.0000
  Si  Si11      1.0  0.75600  0.98000  0.12800  1.0000
  Si  Si12      1.0  0.87200  0.25600  0.52000  1.0000
  Si  Si13      1.0  0.52000  0.62800  0.75600  1.0000
  Si  Si14      1.0  0.98000  0.37200  0.25600  1.0000
  Si  Si15      1.0  0.01960  0.87200  0.24400  1.0000
  Si  Si16      1.0  0.48000  0.12800  0.74400  1.0000
  Si  Si17      1.0  0.75600  0.52000  0.62800  1.0000
  Si  Si18      1.0  0.62800  0.75600  0.52000  1.0000
  Si  Si19      1.0  0.74400  0.48000  0.12800  1.0000
  Si  Si20      1.0  0.37200  0.25600  0.98000  1.0000
  Si  Si21      1.0  0.25600  0.98000  0.37200  1.0000
  Si  Si22      1.0  0.87200  0.24400  0.01960  1.0000
  Si  Si23      1.0  0.24400  0.01960  0.87200  1.0000
  Si  Si24      1.0  0.12800  0.74400  0.48000  1.0000
  Sr  Sr1       1.0  0.50000  0.00000  0.00000  1.0000
  Sr  Sr2       1.0  0.00000  0.00000  0.50000  1.0000
  Sr  Sr3       1.0  0.00000  0.50000  0.00000  1.0000
  Sr  Sr4       1.0  0.50000  0.50000  0.50000  1.0000
  Sr  Sr5       1.0  0.21900  0.21900  0.21900  1.0000
  Sr  Sr6       1.0  0.28100  0.78100  0.71900  1.0000
  Sr  Sr7       1.0  0.71900  0.28100  0.78100  1.0000
  Sr  Sr8       1.0  0.78100  0.71900  0.28100  1.0000
  Sr  Sr9       1.0  0.78100  0.78100  0.78100  1.0000
  Sr  Sr10      1.0  0.71900  0.21900  0.28100  1.0000
  Sr  Sr11      1.0  0.28100  0.71900  0.21900  1.0000
  Sr  Sr12      1.0  0.21900  0.28100  0.71900  1.0000
