data_image0
_chemical_formula_structural       Al6B48Ni72
_chemical_formula_sum              "Al6 B48 Ni72"
_cell_length_a       8.98608
_cell_length_b       8.98608
_cell_length_c       14.571
_cell_angle_alpha    90
_cell_angle_beta     90
_cell_angle_gamma    72.0464

_space_group_name_H-M_alt    "P 1"
_space_group_IT_number       1

loop_
  _space_group_symop_operation_xyz
  'x, y, z'

loop_
  _atom_site_type_symbol
  _atom_site_label
  _atom_site_symmetry_multiplicity
  _atom_site_fract_x
  _atom_site_fract_y
  _atom_site_fract_z
  _atom_site_occupancy
  Al  Al1       1.0  0.00000  0.00000  0.00000  1.0000
  Al  Al2       1.0  0.50000  0.50000  0.50000  1.0000
  Al  Al3       1.0  0.23300  0.23300  0.26100  1.0000
  Al  Al4       1.0  0.26700  0.26700  0.76100  1.0000
  Al  Al5       1.0  0.76700  0.76700  0.73900  1.0000
  Al  Al6       1.0  0.73300  0.73300  0.23900  1.0000
  B   B1        1.0  0.82600  0.82600  0.48200  1.0000
  B   B2        1.0  0.67400  0.67400  0.98200  1.0000
  B   B3        1.0  0.17400  0.17400  0.51800  1.0000
  B   B4        1.0  0.32600  0.32600  0.01830  1.0000
  B   B5        1.0  0.70500  0.70500  0.49800  1.0000
  B   B6        1.0  0.79500  0.79500  0.99800  1.0000
  B   B7        1.0  0.29500  0.29500  0.50200  1.0000
  B   B8        1.0  0.20500  0.20500  0.00191  1.0000
  B   B9        1.0  0.72700  0.27300  0.50000  1.0000
  B   B10       1.0  0.77300  0.22700  0.00000  1.0000
  B   B11       1.0  0.27300  0.72700  0.50000  1.0000
  B   B12       1.0  0.22700  0.77300  0.00000  1.0000
  B   B13       1.0  0.26600  0.88400  0.42100  1.0000
  B   B14       1.0  0.23400  0.61600  0.92100  1.0000
  B   B15       1.0  0.11600  0.73400  0.57900  1.0000
  B   B16       1.0  0.38400  0.76600  0.07880  1.0000
  B   B17       1.0  0.73400  0.11600  0.57900  1.0000
  B   B18       1.0  0.76600  0.38400  0.07880  1.0000
  B   B19       1.0  0.88400  0.26600  0.42100  1.0000
  B   B20       1.0  0.61600  0.23400  0.92100  1.0000
  B   B21       1.0  0.99000  0.99000  0.20600  1.0000
  B   B22       1.0  0.51000  0.51000  0.70600  1.0000
  B   B23       1.0  0.01000  0.01000  0.79400  1.0000
  B   B24       1.0  0.49000  0.49000  0.29400  1.0000
  B   B25       1.0  0.97500  0.97500  0.32600  1.0000
  B   B26       1.0  0.52500  0.52500  0.82600  1.0000
  B   B27       1.0  0.02540  0.02540  0.67400  1.0000
  B   B28       1.0  0.47500  0.47500  0.17400  1.0000
  B   B29       1.0  0.85600  0.85600  0.36100  1.0000
  B   B30       1.0  0.64400  0.64400  0.86100  1.0000
  B   B31       1.0  0.14400  0.14400  0.63900  1.0000
  B   B32       1.0  0.35600  0.35600  0.13900  1.0000
  B   B33       1.0  0.34000  0.93500  0.15200  1.0000
  B   B34       1.0  0.16000  0.56500  0.65200  1.0000
  B   B35       1.0  0.06450  0.66000  0.84800  1.0000
  B   B36       1.0  0.43500  0.84000  0.34800  1.0000
  B   B37       1.0  0.66000  0.06450  0.84800  1.0000
  B   B38       1.0  0.84000  0.43500  0.34800  1.0000
  B   B39       1.0  0.93500  0.34000  0.15200  1.0000
  B   B40       1.0  0.56500  0.16000  0.65200  1.0000
  B   B41       1.0  0.13500  0.55400  0.35700  1.0000
  B   B42       1.0  0.36500  0.94600  0.85700  1.0000
  B   B43       1.0  0.44600  0.86500  0.64300  1.0000
  B   B44       1.0  0.05370  0.63500  0.14300  1.0000
  B   B45       1.0  0.86500  0.44600  0.64300  1.0000
  B   B46       1.0  0.63500  0.05370  0.14300  1.0000
  B   B47       1.0  0.55400  0.13500  0.35700  1.0000
  B   B48       1.0  0.94600  0.36500  0.85700  1.0000
  Ni  Ni1       1.0  0.07470  0.07470  0.42200  1.0000
  Ni  Ni2       1.0  0.42500  0.42500  0.92200  1.0000
  Ni  Ni3       1.0  0.92500  0.92500  0.57800  1.0000
  Ni  Ni4       1.0  0.57500  0.57500  0.07810  1.0000
  Ni  Ni5       1.0  0.86300  0.86300  0.12500  1.0000
  Ni  Ni6       1.0  0.63700  0.63700  0.62500  1.0000
  Ni  Ni7       1.0  0.13700  0.13700  0.87500  1.0000
  Ni  Ni8       1.0  0.36300  0.36300  0.37500  1.0000
  Ni  Ni9       1.0  0.11800  0.11800  0.13100  1.0000
  Ni  Ni10      1.0  0.38200  0.38200  0.63100  1.0000
  Ni  Ni11      1.0  0.88200  0.88200  0.86900  1.0000
  Ni  Ni12      1.0  0.61800  0.61800  0.36900  1.0000
  Ni  Ni13      1.0  0.48500  0.98500  0.25000  1.0000
  Ni  Ni14      1.0  0.01470  0.51500  0.75000  1.0000
  Ni  Ni15      1.0  0.51500  0.01470  0.75000  1.0000
  Ni  Ni16      1.0  0.98500  0.48500  0.25000  1.0000
  Ni  Ni17      1.0  0.20000  0.53500  0.49800  1.0000
  Ni  Ni18      1.0  0.30000  0.96500  0.99800  1.0000
  Ni  Ni19      1.0  0.46500  0.80000  0.50200  1.0000
  Ni  Ni20      1.0  0.03460  0.70000  0.00220  1.0000
  Ni  Ni21      1.0  0.80000  0.46500  0.50200  1.0000
  Ni  Ni22      1.0  0.70000  0.03460  0.00220  1.0000
  Ni  Ni23      1.0  0.53500  0.20000  0.49800  1.0000
  Ni  Ni24      1.0  0.96500  0.30000  0.99800  1.0000
  Ni  Ni25      1.0  0.15800  0.82500  0.13200  1.0000
  Ni  Ni26      1.0  0.34200  0.67500  0.63200  1.0000
  Ni  Ni27      1.0  0.17500  0.84200  0.86800  1.0000
  Ni  Ni28      1.0  0.32500  0.65800  0.36800  1.0000
  Ni  Ni29      1.0  0.84200  0.17500  0.86800  1.0000
  Ni  Ni30      1.0  0.65800  0.32500  0.36800  1.0000
  Ni  Ni31      1.0  0.82500  0.15800  0.13200  1.0000
  Ni  Ni32      1.0  0.67500  0.34200  0.63200  1.0000
  Ni  Ni33      1.0  0.02260  0.75200  0.26800  1.0000
  Ni  Ni34      1.0  0.47700  0.74800  0.76800  1.0000
  Ni  Ni35      1.0  0.24800  0.97700  0.73200  1.0000
  Ni  Ni36      1.0  0.25200  0.52300  0.23200  1.0000
  Ni  Ni37      1.0  0.97700  0.24800  0.73200  1.0000
  Ni  Ni38      1.0  0.52300  0.25200  0.23200  1.0000
  Ni  Ni39      1.0  0.75200  0.02260  0.26800  1.0000
  Ni  Ni40      1.0  0.74800  0.47700  0.76800  1.0000
  Ni  Ni41      1.0  0.06190  0.79900  0.43400  1.0000
  Ni  Ni42      1.0  0.43800  0.70100  0.93400  1.0000
  Ni  Ni43      1.0  0.20100  0.93800  0.56600  1.0000
  Ni  Ni44      1.0  0.29900  0.56200  0.06590  1.0000
  Ni  Ni45      1.0  0.93800  0.20100  0.56600  1.0000
  Ni  Ni46      1.0  0.56200  0.29900  0.06590  1.0000
  Ni  Ni47      1.0  0.79900  0.06190  0.43400  1.0000
  Ni  Ni48      1.0  0.70100  0.43800  0.93400  1.0000
  Ni  Ni49      1.0  0.21200  0.95000  0.28000  1.0000
  Ni  Ni50      1.0  0.28800  0.55000  0.78000  1.0000
  Ni  Ni51      1.0  0.04960  0.78800  0.72000  1.0000
  Ni  Ni52      1.0  0.45000  0.71200  0.22000  1.0000
  Ni  Ni53      1.0  0.78800  0.04960  0.72000  1.0000
  Ni  Ni54      1.0  0.71200  0.45000  0.22000  1.0000
  Ni  Ni55      1.0  0.95000  0.21200  0.28000  1.0000
  Ni  Ni56      1.0  0.55000  0.28800  0.78000  1.0000
  Ni  Ni57      1.0  0.35000  0.08290  0.41200  1.0000
  Ni  Ni58      1.0  0.15000  0.41700  0.91200  1.0000
  Ni  Ni59      1.0  0.91700  0.65000  0.58800  1.0000
  Ni  Ni60      1.0  0.58300  0.85000  0.08790  1.0000
  Ni  Ni61      1.0  0.65000  0.91700  0.58800  1.0000
  Ni  Ni62      1.0  0.85000  0.58300  0.08790  1.0000
  Ni  Ni63      1.0  0.08290  0.35000  0.41200  1.0000
  Ni  Ni64      1.0  0.41700  0.15000  0.91200  1.0000
  Ni  Ni65      1.0  0.89600  0.63000  0.39600  1.0000
  Ni  Ni66      1.0  0.60400  0.87000  0.89600  1.0000
  Ni  Ni67      1.0  0.37000  0.10400  0.60400  1.0000
  Ni  Ni68      1.0  0.13000  0.39600  0.10400  1.0000
  Ni  Ni69      1.0  0.10400  0.37000  0.60400  1.0000
  Ni  Ni70      1.0  0.39600  0.13000  0.10400  1.0000
  Ni  Ni71      1.0  0.63000  0.89600  0.39600  1.0000
  Ni  Ni72      1.0  0.87000  0.60400  0.89600  1.0000
