data_image0
_chemical_formula_structural       Ba20F20Ga4Li4N12
_chemical_formula_sum              "Ba20 F20 Ga4 Li4 N12"
_cell_length_a       15.069
_cell_length_b       5.55794
_cell_length_c       12.0288
_cell_angle_alpha    90
_cell_angle_beta     90
_cell_angle_gamma    90

_space_group_name_H-M_alt    "P 1"
_space_group_IT_number       1

loop_
  _space_group_symop_operation_xyz
  'x, y, z'

loop_
  _atom_site_type_symbol
  _atom_site_label
  _atom_site_symmetry_multiplicity
  _atom_site_fract_x
  _atom_site_fract_y
  _atom_site_fract_z
  _atom_site_occupancy
  Ba  Ba1       1.0  0.24700  0.75000  0.78000  1.0000
  Ba  Ba2       1.0  0.25300  0.25000  0.28000  1.0000
  Ba  Ba3       1.0  0.74700  0.75000  0.72000  1.0000
  Ba  Ba4       1.0  0.75300  0.25000  0.22000  1.0000
  Ba  Ba5       1.0  0.16600  0.25000  0.62700  1.0000
  Ba  Ba6       1.0  0.33400  0.75000  0.12700  1.0000
  Ba  Ba7       1.0  0.66600  0.25000  0.87300  1.0000
  Ba  Ba8       1.0  0.83400  0.75000  0.37300  1.0000
  Ba  Ba9       1.0  0.50900  0.75000  0.87700  1.0000
  Ba  Ba10      1.0  0.99100  0.25000  0.37700  1.0000
  Ba  Ba11      1.0  0.00877  0.75000  0.62300  1.0000
  Ba  Ba12      1.0  0.49100  0.25000  0.12300  1.0000
  Ba  Ba13      1.0  0.34400  0.75000  0.46900  1.0000
  Ba  Ba14      1.0  0.15600  0.25000  0.96900  1.0000
  Ba  Ba15      1.0  0.84400  0.75000  0.03130  1.0000
  Ba  Ba16      1.0  0.65600  0.25000  0.53100  1.0000
  Ba  Ba17      1.0  0.43600  0.25000  0.68100  1.0000
  Ba  Ba18      1.0  0.06380  0.75000  0.18100  1.0000
  Ba  Ba19      1.0  0.93600  0.25000  0.81900  1.0000
  Ba  Ba20      1.0  0.56400  0.75000  0.31900  1.0000
  F   F1        1.0  0.41000  0.01120  0.29900  1.0000
  F   F2        1.0  0.08980  0.98900  0.79900  1.0000
  F   F3        1.0  0.91000  0.48900  0.20100  1.0000
  F   F4        1.0  0.59000  0.51100  0.70100  1.0000
  F   F5        1.0  0.59000  0.98900  0.70100  1.0000
  F   F6        1.0  0.91000  0.01120  0.20100  1.0000
  F   F7        1.0  0.08980  0.51100  0.79900  1.0000
  F   F8        1.0  0.41000  0.48900  0.29900  1.0000
  F   F9        1.0  0.50000  0.00000  0.50000  1.0000
  F   F10       1.0  0.00000  0.00000  0.00000  1.0000
  F   F11       1.0  0.00000  0.50000  0.00000  1.0000
  F   F12       1.0  0.50000  0.50000  0.50000  1.0000
  F   F13       1.0  0.41100  0.75000  0.68200  1.0000
  F   F14       1.0  0.08920  0.25000  0.18200  1.0000
  F   F15       1.0  0.91100  0.75000  0.81800  1.0000
  F   F16       1.0  0.58900  0.25000  0.31800  1.0000
  F   F17       1.0  0.17700  0.75000  0.99300  1.0000
  F   F18       1.0  0.32300  0.25000  0.49300  1.0000
  F   F19       1.0  0.67700  0.75000  0.50700  1.0000
  F   F20       1.0  0.82300  0.25000  0.00733  1.0000
  Ga  Ga1       1.0  0.36000  0.25000  0.92500  1.0000
  Ga  Ga2       1.0  0.14000  0.75000  0.42500  1.0000
  Ga  Ga3       1.0  0.86000  0.25000  0.57500  1.0000
  Ga  Ga4       1.0  0.64000  0.75000  0.07540  1.0000
  Li  Li1       1.0  0.45700  0.25000  0.39900  1.0000
  Li  Li2       1.0  0.04300  0.75000  0.89900  1.0000
  Li  Li3       1.0  0.95700  0.25000  0.10100  1.0000
  Li  Li4       1.0  0.54300  0.75000  0.60100  1.0000
  N   N1        1.0  0.48300  0.25000  0.90000  1.0000
  N   N2        1.0  0.01720  0.75000  0.40000  1.0000
  N   N3        1.0  0.98300  0.25000  0.60000  1.0000
  N   N4        1.0  0.51700  0.75000  0.10000  1.0000
  N   N5        1.0  0.28300  0.25000  0.80000  1.0000
  N   N6        1.0  0.21700  0.75000  0.30000  1.0000
  N   N7        1.0  0.78300  0.25000  0.70000  1.0000
  N   N8        1.0  0.71700  0.75000  0.20000  1.0000
  N   N9        1.0  0.31400  0.25000  0.07300  1.0000
  N   N10       1.0  0.18600  0.75000  0.57300  1.0000
  N   N11       1.0  0.81400  0.25000  0.42700  1.0000
  N   N12       1.0  0.68600  0.75000  0.92700  1.0000
