data_image0
_chemical_formula_structural       Cl20Co2W4
_chemical_formula_sum              "Cl20 Co2 W4"
_cell_length_a       8.76344
_cell_length_b       8.76344
_cell_length_c       12.0803
_cell_angle_alpha    83.6591
_cell_angle_beta     96.3409
_cell_angle_gamma    40.0868

_space_group_name_H-M_alt    "P 1"
_space_group_IT_number       1

loop_
  _space_group_symop_operation_xyz
  'x, y, z'

loop_
  _atom_site_type_symbol
  _atom_site_label
  _atom_site_symmetry_multiplicity
  _atom_site_fract_x
  _atom_site_fract_y
  _atom_site_fract_z
  _atom_site_occupancy
  Cl  Cl1       1.0  0.53500  0.05370  0.86500  1.0000
  Cl  Cl2       1.0  0.05370  0.53500  0.63500  1.0000
  Cl  Cl3       1.0  0.46500  0.94600  0.13500  1.0000
  Cl  Cl4       1.0  0.94600  0.46500  0.36500  1.0000
  Cl  Cl5       1.0  0.14100  0.67800  0.86700  1.0000
  Cl  Cl6       1.0  0.67800  0.14100  0.63300  1.0000
  Cl  Cl7       1.0  0.85900  0.32200  0.13300  1.0000
  Cl  Cl8       1.0  0.32200  0.85900  0.36700  1.0000
  Cl  Cl9       1.0  0.37600  0.82900  0.89000  1.0000
  Cl  Cl10      1.0  0.82900  0.37600  0.61000  1.0000
  Cl  Cl11      1.0  0.62400  0.17100  0.11000  1.0000
  Cl  Cl12      1.0  0.17100  0.62400  0.39000  1.0000
  Cl  Cl13      1.0  0.44200  0.95800  0.63200  1.0000
  Cl  Cl14      1.0  0.95800  0.44200  0.86800  1.0000
  Cl  Cl15      1.0  0.55800  0.04240  0.36800  1.0000
  Cl  Cl16      1.0  0.04240  0.55800  0.13200  1.0000
  Cl  Cl17      1.0  0.24400  0.77200  0.63500  1.0000
  Cl  Cl18      1.0  0.77200  0.24400  0.86500  1.0000
  Cl  Cl19      1.0  0.75600  0.22800  0.36500  1.0000
  Cl  Cl20      1.0  0.22800  0.75600  0.13500  1.0000
  Co  Co1       1.0  0.19600  0.19600  0.25000  1.0000
  Co  Co2       1.0  0.80400  0.80400  0.75000  1.0000
  W   W1        1.0  0.98100  0.98100  0.25000  1.0000
  W   W2        1.0  0.01950  0.01950  0.75000  1.0000
  W   W3        1.0  0.81400  0.81400  0.25000  1.0000
  W   W4        1.0  0.18600  0.18600  0.75000  1.0000
