data_image0
_chemical_formula_structural       LiMo16Nd9O35
_chemical_formula_sum              "Li1 Mo16 Nd9 O35"
_cell_length_a       9.96332
_cell_length_b       9.96332
_cell_length_c       9.73924
_cell_angle_alpha    79.1559
_cell_angle_beta     100.844
_cell_angle_gamma    129.048

_space_group_name_H-M_alt    "P 1"
_space_group_IT_number       1

loop_
  _space_group_symop_operation_xyz
  'x, y, z'

loop_
  _atom_site_type_symbol
  _atom_site_label
  _atom_site_symmetry_multiplicity
  _atom_site_fract_x
  _atom_site_fract_y
  _atom_site_fract_z
  _atom_site_occupancy
  Li  Li1       1.0  0.00000  0.00000  0.00000  1.0000
  Mo  Mo1       1.0  0.27100  0.04650  0.55100  1.0000
  Mo  Mo2       1.0  0.04650  0.27100  0.44900  1.0000
  Mo  Mo3       1.0  0.72900  0.95300  0.44900  1.0000
  Mo  Mo4       1.0  0.95300  0.72900  0.55100  1.0000
  Mo  Mo5       1.0  0.26200  0.06100  0.83100  1.0000
  Mo  Mo6       1.0  0.06100  0.26200  0.16900  1.0000
  Mo  Mo7       1.0  0.73800  0.93900  0.16900  1.0000
  Mo  Mo8       1.0  0.93900  0.73800  0.83100  1.0000
  Mo  Mo9       1.0  0.21200  0.78800  0.74500  1.0000
  Mo  Mo10      1.0  0.78800  0.21200  0.25500  1.0000
  Mo  Mo11      1.0  0.00971  0.99000  0.35500  1.0000
  Mo  Mo12      1.0  0.99000  0.00971  0.64500  1.0000
  Mo  Mo13      1.0  0.68300  0.68600  0.35600  1.0000
  Mo  Mo14      1.0  0.68600  0.68300  0.64400  1.0000
  Mo  Mo15      1.0  0.31700  0.31400  0.64400  1.0000
  Mo  Mo16      1.0  0.31400  0.31700  0.35600  1.0000
  Nd  Nd1       1.0  0.37900  0.07050  0.20100  1.0000
  Nd  Nd2       1.0  0.07050  0.37900  0.79900  1.0000
  Nd  Nd3       1.0  0.62100  0.92900  0.79900  1.0000
  Nd  Nd4       1.0  0.92900  0.62100  0.20100  1.0000
  Nd  Nd5       1.0  0.70300  0.29700  0.53600  1.0000
  Nd  Nd6       1.0  0.29700  0.70300  0.46400  1.0000
  Nd  Nd7       1.0  0.30800  0.69200  0.06830  1.0000
  Nd  Nd8       1.0  0.69200  0.30800  0.93200  1.0000
  Nd  Nd9       1.0  0.50000  0.50000  0.00000  1.0000
  O   O1        1.0  0.50000  0.50000  0.50000  1.0000
  O   O2        1.0  0.44200  0.20800  0.40400  1.0000
  O   O3        1.0  0.20800  0.44200  0.59600  1.0000
  O   O4        1.0  0.55800  0.79200  0.59600  1.0000
  O   O5        1.0  0.79200  0.55800  0.40400  1.0000
  O   O6        1.0  0.10400  0.89600  0.99200  1.0000
  O   O7        1.0  0.89600  0.10400  0.00842  1.0000
  O   O8        1.0  0.50600  0.49400  0.23300  1.0000
  O   O9        1.0  0.49400  0.50600  0.76700  1.0000
  O   O10       1.0  0.46000  0.22300  0.69400  1.0000
  O   O11       1.0  0.22300  0.46000  0.30600  1.0000
  O   O12       1.0  0.54000  0.77700  0.30600  1.0000
  O   O13       1.0  0.77700  0.54000  0.69400  1.0000
  O   O14       1.0  0.39900  0.93700  0.60800  1.0000
  O   O15       1.0  0.93700  0.39900  0.39200  1.0000
  O   O16       1.0  0.60100  0.06300  0.39200  1.0000
  O   O17       1.0  0.06300  0.60100  0.60800  1.0000
  O   O18       1.0  0.22400  0.42500  0.01970  1.0000
  O   O19       1.0  0.42500  0.22400  0.98000  1.0000
  O   O20       1.0  0.77600  0.57500  0.98000  1.0000
  O   O21       1.0  0.57500  0.77600  0.01970  1.0000
  O   O22       1.0  0.32700  0.67300  0.81100  1.0000
  O   O23       1.0  0.67300  0.32700  0.18900  1.0000
  O   O24       1.0  0.38700  0.94900  0.88900  1.0000
  O   O25       1.0  0.94900  0.38700  0.11100  1.0000
  O   O26       1.0  0.61300  0.05140  0.11100  1.0000
  O   O27       1.0  0.05140  0.61300  0.88900  1.0000
  O   O28       1.0  0.23200  0.76800  0.23100  1.0000
  O   O29       1.0  0.76800  0.23200  0.76900  1.0000
  O   O30       1.0  0.12900  0.87100  0.39700  1.0000
  O   O31       1.0  0.87100  0.12900  0.60300  1.0000
  O   O32       1.0  0.14400  0.18200  0.80100  1.0000
  O   O33       1.0  0.18200  0.14400  0.19900  1.0000
  O   O34       1.0  0.85600  0.81800  0.19900  1.0000
  O   O35       1.0  0.81800  0.85600  0.80100  1.0000
