data_image0
_chemical_formula_structural       F8Li8N24Sr16Ta8
_chemical_formula_sum              "F8 Li8 N24 Sr16 Ta8"
_cell_length_a       10.7905
_cell_length_b       5.44471
_cell_length_c       15.7064
_cell_angle_alpha    90
_cell_angle_beta     90
_cell_angle_gamma    90

_space_group_name_H-M_alt    "P 1"
_space_group_IT_number       1

loop_
  _space_group_symop_operation_xyz
  'x, y, z'

loop_
  _atom_site_type_symbol
  _atom_site_label
  _atom_site_symmetry_multiplicity
  _atom_site_fract_x
  _atom_site_fract_y
  _atom_site_fract_z
  _atom_site_occupancy
  F   F1        1.0  0.75400  0.03630  0.41800  1.0000
  F   F2        1.0  0.74600  0.96400  0.91800  1.0000
  F   F3        1.0  0.25400  0.46400  0.58200  1.0000
  F   F4        1.0  0.24600  0.53600  0.08200  1.0000
  F   F5        1.0  0.24600  0.96400  0.58200  1.0000
  F   F6        1.0  0.25400  0.03630  0.08200  1.0000
  F   F7        1.0  0.74600  0.53600  0.41800  1.0000
  F   F8        1.0  0.75400  0.46400  0.91800  1.0000
  Li  Li1       1.0  0.83500  0.78500  0.48100  1.0000
  Li  Li2       1.0  0.66500  0.21500  0.98100  1.0000
  Li  Li3       1.0  0.33500  0.71500  0.51900  1.0000
  Li  Li4       1.0  0.16500  0.28500  0.01920  1.0000
  Li  Li5       1.0  0.16500  0.21500  0.51900  1.0000
  Li  Li6       1.0  0.33500  0.78500  0.01920  1.0000
  Li  Li7       1.0  0.66500  0.28500  0.48100  1.0000
  Li  Li8       1.0  0.83500  0.71500  0.98100  1.0000
  N   N1        1.0  0.88300  0.20100  0.75300  1.0000
  N   N2        1.0  0.61700  0.79900  0.25300  1.0000
  N   N3        1.0  0.38300  0.29900  0.24700  1.0000
  N   N4        1.0  0.11700  0.70100  0.74700  1.0000
  N   N5        1.0  0.11700  0.79900  0.24700  1.0000
  N   N6        1.0  0.38300  0.20100  0.74700  1.0000
  N   N7        1.0  0.61700  0.70100  0.75300  1.0000
  N   N8        1.0  0.88300  0.29900  0.25300  1.0000
  N   N9        1.0  0.99600  0.24900  0.57500  1.0000
  N   N10       1.0  0.50400  0.75100  0.07450  1.0000
  N   N11       1.0  0.49600  0.25100  0.42500  1.0000
  N   N12       1.0  0.00438  0.74900  0.92500  1.0000
  N   N13       1.0  0.00438  0.75100  0.42500  1.0000
  N   N14       1.0  0.49600  0.24900  0.92500  1.0000
  N   N15       1.0  0.50400  0.74900  0.57500  1.0000
  N   N16       1.0  0.99600  0.25100  0.07450  1.0000
  N   N17       1.0  0.82400  0.81200  0.61300  1.0000
  N   N18       1.0  0.67600  0.18800  0.11300  1.0000
  N   N19       1.0  0.32400  0.68800  0.38700  1.0000
  N   N20       1.0  0.17600  0.31200  0.88700  1.0000
  N   N21       1.0  0.17600  0.18800  0.38700  1.0000
  N   N22       1.0  0.32400  0.81200  0.88700  1.0000
  N   N23       1.0  0.67600  0.31200  0.61300  1.0000
  N   N24       1.0  0.82400  0.68800  0.11300  1.0000
  Sr  Sr1       1.0  0.13100  0.21300  0.71500  1.0000
  Sr  Sr2       1.0  0.36900  0.78700  0.21500  1.0000
  Sr  Sr3       1.0  0.63100  0.28700  0.28500  1.0000
  Sr  Sr4       1.0  0.86900  0.71300  0.78500  1.0000
  Sr  Sr5       1.0  0.86900  0.78700  0.28500  1.0000
  Sr  Sr6       1.0  0.63100  0.21300  0.78500  1.0000
  Sr  Sr7       1.0  0.36900  0.71300  0.71500  1.0000
  Sr  Sr8       1.0  0.13100  0.28700  0.21500  1.0000
  Sr  Sr9       1.0  0.94800  0.28900  0.41500  1.0000
  Sr  Sr10      1.0  0.55200  0.71100  0.91500  1.0000
  Sr  Sr11      1.0  0.44800  0.21100  0.58500  1.0000
  Sr  Sr12      1.0  0.05170  0.78900  0.08500  1.0000
  Sr  Sr13      1.0  0.05170  0.71100  0.58500  1.0000
  Sr  Sr14      1.0  0.44800  0.28900  0.08500  1.0000
  Sr  Sr15      1.0  0.55200  0.78900  0.41500  1.0000
  Sr  Sr16      1.0  0.94800  0.21100  0.91500  1.0000
  Ta  Ta1       1.0  0.84500  0.16800  0.63400  1.0000
  Ta  Ta2       1.0  0.65500  0.83200  0.13400  1.0000
  Ta  Ta3       1.0  0.34500  0.33200  0.36600  1.0000
  Ta  Ta4       1.0  0.15500  0.66800  0.86600  1.0000
  Ta  Ta5       1.0  0.15500  0.83200  0.36600  1.0000
  Ta  Ta6       1.0  0.34500  0.16800  0.86600  1.0000
  Ta  Ta7       1.0  0.65500  0.66800  0.63400  1.0000
  Ta  Ta8       1.0  0.84500  0.33200  0.13400  1.0000
