data_image0
_chemical_formula_structural       Se17TiU8
_chemical_formula_sum              "Se17 Ti1 U8"
_cell_length_a       8.20526
_cell_length_b       8.20526
_cell_length_c       10.8718
_cell_angle_alpha    80.6519
_cell_angle_beta     99.3481
_cell_angle_gamma    115.096

_space_group_name_H-M_alt    "P 1"
_space_group_IT_number       1

loop_
  _space_group_symop_operation_xyz
  'x, y, z'

loop_
  _atom_site_type_symbol
  _atom_site_label
  _atom_site_symmetry_multiplicity
  _atom_site_fract_x
  _atom_site_fract_y
  _atom_site_fract_z
  _atom_site_occupancy
  Se  Se1       1.0  0.00000  0.00000  0.50000  1.0000
  Se  Se2       1.0  0.52200  0.47800  0.16900  1.0000
  Se  Se3       1.0  0.47800  0.52200  0.83100  1.0000
  Se  Se4       1.0  0.30100  0.69900  0.24500  1.0000
  Se  Se5       1.0  0.69900  0.30100  0.75500  1.0000
  Se  Se6       1.0  0.06120  0.93900  0.23000  1.0000
  Se  Se7       1.0  0.93900  0.06120  0.77000  1.0000
  Se  Se8       1.0  0.21400  0.78600  0.72400  1.0000
  Se  Se9       1.0  0.78600  0.21400  0.27600  1.0000
  Se  Se10      1.0  0.32500  0.05940  0.97200  1.0000
  Se  Se11      1.0  0.05940  0.32500  0.02760  1.0000
  Se  Se12      1.0  0.67500  0.94100  0.02760  1.0000
  Se  Se13      1.0  0.94100  0.67500  0.97200  1.0000
  Se  Se14      1.0  0.43500  0.18100  0.46400  1.0000
  Se  Se15      1.0  0.18100  0.43500  0.53600  1.0000
  Se  Se16      1.0  0.56500  0.81900  0.53600  1.0000
  Se  Se17      1.0  0.81900  0.56500  0.46400  1.0000
  Ti  Ti1       1.0  0.00000  0.00000  0.00000  1.0000
  U   U1        1.0  0.30200  0.18200  0.70200  1.0000
  U   U2        1.0  0.18200  0.30200  0.29800  1.0000
  U   U3        1.0  0.69800  0.81800  0.29800  1.0000
  U   U4        1.0  0.81800  0.69800  0.70200  1.0000
  U   U5        1.0  0.68300  0.31700  0.01630  1.0000
  U   U6        1.0  0.31700  0.68300  0.98400  1.0000
  U   U7        1.0  0.20300  0.79700  0.45900  1.0000
  U   U8        1.0  0.79700  0.20300  0.54100  1.0000
