data_image0
_chemical_formula_structural       FeSe17U8
_chemical_formula_sum              "Fe1 Se17 U8"
_cell_length_a       8.14595
_cell_length_b       8.14595
_cell_length_c       10.769
_cell_angle_alpha    80.3379
_cell_angle_beta     99.6621
_cell_angle_gamma    115.376

_space_group_name_H-M_alt    "P 1"
_space_group_IT_number       1

loop_
  _space_group_symop_operation_xyz
  'x, y, z'

loop_
  _atom_site_type_symbol
  _atom_site_label
  _atom_site_symmetry_multiplicity
  _atom_site_fract_x
  _atom_site_fract_y
  _atom_site_fract_z
  _atom_site_occupancy
  Fe  Fe1       1.0  0.00000  0.00000  0.00000  1.0000
  Se  Se1       1.0  0.00000  0.00000  0.50000  1.0000
  Se  Se2       1.0  0.52000  0.48000  0.16900  1.0000
  Se  Se3       1.0  0.48000  0.52000  0.83100  1.0000
  Se  Se4       1.0  0.29800  0.70200  0.24400  1.0000
  Se  Se5       1.0  0.70200  0.29800  0.75600  1.0000
  Se  Se6       1.0  0.05490  0.94500  0.22300  1.0000
  Se  Se7       1.0  0.94500  0.05490  0.77700  1.0000
  Se  Se8       1.0  0.21700  0.78300  0.72100  1.0000
  Se  Se9       1.0  0.78300  0.21700  0.27900  1.0000
  Se  Se10      1.0  0.31600  0.05230  0.97700  1.0000
  Se  Se11      1.0  0.05230  0.31600  0.02260  1.0000
  Se  Se12      1.0  0.68400  0.94800  0.02260  1.0000
  Se  Se13      1.0  0.94800  0.68400  0.97700  1.0000
  Se  Se14      1.0  0.43500  0.18000  0.46400  1.0000
  Se  Se15      1.0  0.18000  0.43500  0.53600  1.0000
  Se  Se16      1.0  0.56500  0.82000  0.53600  1.0000
  Se  Se17      1.0  0.82000  0.56500  0.46400  1.0000
  U   U1        1.0  0.30400  0.18000  0.70500  1.0000
  U   U2        1.0  0.18000  0.30400  0.29500  1.0000
  U   U3        1.0  0.69600  0.82000  0.29500  1.0000
  U   U4        1.0  0.82000  0.69600  0.70500  1.0000
  U   U5        1.0  0.68100  0.31900  0.01660  1.0000
  U   U6        1.0  0.31900  0.68100  0.98300  1.0000
  U   U7        1.0  0.20100  0.79900  0.45400  1.0000
  U   U8        1.0  0.79900  0.20100  0.54600  1.0000
