data_image0
_chemical_formula_structural       NiSe17U8
_chemical_formula_sum              "Ni1 Se17 U8"
_cell_length_a       8.18427
_cell_length_b       8.18427
_cell_length_c       10.7947
_cell_angle_alpha    79.5626
_cell_angle_beta     100.437
_cell_angle_gamma    115.534

_space_group_name_H-M_alt    "P 1"
_space_group_IT_number       1

loop_
  _space_group_symop_operation_xyz
  'x, y, z'

loop_
  _atom_site_type_symbol
  _atom_site_label
  _atom_site_symmetry_multiplicity
  _atom_site_fract_x
  _atom_site_fract_y
  _atom_site_fract_z
  _atom_site_occupancy
  Ni  Ni1       1.0  0.00000  0.00000  0.00000  1.0000
  Se  Se1       1.0  0.00000  0.00000  0.50000  1.0000
  Se  Se2       1.0  0.51900  0.48100  0.17000  1.0000
  Se  Se3       1.0  0.48100  0.51900  0.83000  1.0000
  Se  Se4       1.0  0.29600  0.70400  0.24400  1.0000
  Se  Se5       1.0  0.70400  0.29600  0.75600  1.0000
  Se  Se6       1.0  0.05000  0.95000  0.22300  1.0000
  Se  Se7       1.0  0.95000  0.05000  0.77700  1.0000
  Se  Se8       1.0  0.21700  0.78300  0.72200  1.0000
  Se  Se9       1.0  0.78300  0.21700  0.27800  1.0000
  Se  Se10      1.0  0.32300  0.05040  0.97500  1.0000
  Se  Se11      1.0  0.05040  0.32300  0.02530  1.0000
  Se  Se12      1.0  0.67700  0.95000  0.02530  1.0000
  Se  Se13      1.0  0.95000  0.67700  0.97500  1.0000
  Se  Se14      1.0  0.43400  0.18200  0.46300  1.0000
  Se  Se15      1.0  0.18200  0.43400  0.53700  1.0000
  Se  Se16      1.0  0.56600  0.81800  0.53700  1.0000
  Se  Se17      1.0  0.81800  0.56600  0.46300  1.0000
  U   U1        1.0  0.30600  0.17900  0.70200  1.0000
  U   U2        1.0  0.17900  0.30600  0.29800  1.0000
  U   U3        1.0  0.69400  0.82100  0.29800  1.0000
  U   U4        1.0  0.82100  0.69400  0.70200  1.0000
  U   U5        1.0  0.68000  0.32000  0.01510  1.0000
  U   U6        1.0  0.32000  0.68000  0.98500  1.0000
  U   U7        1.0  0.20100  0.79900  0.45400  1.0000
  U   U8        1.0  0.79900  0.20100  0.54600  1.0000
