data_image0
_chemical_formula_structural       Ni80Si62Ti26
_chemical_formula_sum              "Ni80 Si62 Ti26"
_cell_length_a       17.0527
_cell_length_b       17.0527
_cell_length_c       7.82192
_cell_angle_alpha    90
_cell_angle_beta     90
_cell_angle_gamma    120

_space_group_name_H-M_alt    "P 1"
_space_group_IT_number       1

loop_
  _space_group_symop_operation_xyz
  'x, y, z'

loop_
  _atom_site_type_symbol
  _atom_site_label
  _atom_site_symmetry_multiplicity
  _atom_site_fract_x
  _atom_site_fract_y
  _atom_site_fract_z
  _atom_site_occupancy
  Ni  Ni1       1.0  0.33300  0.66700  0.00000  1.0000
  Ni  Ni2       1.0  0.66700  0.33300  0.00000  1.0000
  Ni  Ni3       1.0  0.08450  0.31800  0.00000  1.0000
  Ni  Ni4       1.0  0.91500  0.68200  0.00000  1.0000
  Ni  Ni5       1.0  0.68200  0.76600  0.00000  1.0000
  Ni  Ni6       1.0  0.23400  0.91500  0.00000  1.0000
  Ni  Ni7       1.0  0.76600  0.08450  0.00000  1.0000
  Ni  Ni8       1.0  0.31800  0.23400  0.00000  1.0000
  Ni  Ni9       1.0  0.76600  0.68200  0.00000  1.0000
  Ni  Ni10      1.0  0.91500  0.23400  0.00000  1.0000
  Ni  Ni11      1.0  0.31800  0.08450  0.00000  1.0000
  Ni  Ni12      1.0  0.68200  0.91500  0.00000  1.0000
  Ni  Ni13      1.0  0.08450  0.76600  0.00000  1.0000
  Ni  Ni14      1.0  0.23400  0.31800  0.00000  1.0000
  Ni  Ni15      1.0  0.08940  0.17900  0.23900  1.0000
  Ni  Ni16      1.0  0.91100  0.82100  0.23900  1.0000
  Ni  Ni17      1.0  0.82100  0.91100  0.23900  1.0000
  Ni  Ni18      1.0  0.08930  0.91100  0.23900  1.0000
  Ni  Ni19      1.0  0.91100  0.08930  0.23900  1.0000
  Ni  Ni20      1.0  0.17900  0.08940  0.23900  1.0000
  Ni  Ni21      1.0  0.91100  0.82100  0.76100  1.0000
  Ni  Ni22      1.0  0.91100  0.08930  0.76100  1.0000
  Ni  Ni23      1.0  0.17900  0.08940  0.76100  1.0000
  Ni  Ni24      1.0  0.82100  0.91100  0.76100  1.0000
  Ni  Ni25      1.0  0.08930  0.91100  0.76100  1.0000
  Ni  Ni26      1.0  0.08940  0.17900  0.76100  1.0000
  Ni  Ni27      1.0  0.10500  0.44600  0.22400  1.0000
  Ni  Ni28      1.0  0.89500  0.55400  0.22400  1.0000
  Ni  Ni29      1.0  0.55300  0.65900  0.22400  1.0000
  Ni  Ni30      1.0  0.34100  0.89500  0.22400  1.0000
  Ni  Ni31      1.0  0.65900  0.10500  0.22400  1.0000
  Ni  Ni32      1.0  0.44700  0.34100  0.22400  1.0000
  Ni  Ni33      1.0  0.65900  0.55300  0.77600  1.0000
  Ni  Ni34      1.0  0.89500  0.34100  0.77600  1.0000
  Ni  Ni35      1.0  0.44600  0.10500  0.77600  1.0000
  Ni  Ni36      1.0  0.55400  0.89500  0.77600  1.0000
  Ni  Ni37      1.0  0.10500  0.65900  0.77600  1.0000
  Ni  Ni38      1.0  0.34100  0.44700  0.77600  1.0000
  Ni  Ni39      1.0  0.89500  0.55400  0.77600  1.0000
  Ni  Ni40      1.0  0.10500  0.44600  0.77600  1.0000
  Ni  Ni41      1.0  0.44700  0.34100  0.77600  1.0000
  Ni  Ni42      1.0  0.65900  0.10500  0.77600  1.0000
  Ni  Ni43      1.0  0.34100  0.89500  0.77600  1.0000
  Ni  Ni44      1.0  0.55300  0.65900  0.77600  1.0000
  Ni  Ni45      1.0  0.34100  0.44700  0.22400  1.0000
  Ni  Ni46      1.0  0.10500  0.65900  0.22400  1.0000
  Ni  Ni47      1.0  0.55400  0.89500  0.22400  1.0000
  Ni  Ni48      1.0  0.44600  0.10500  0.22400  1.0000
  Ni  Ni49      1.0  0.89500  0.34100  0.22400  1.0000
  Ni  Ni50      1.0  0.65900  0.55300  0.22400  1.0000
  Ni  Ni51      1.0  0.54300  0.08680  0.00000  1.0000
  Ni  Ni52      1.0  0.45700  0.91300  0.00000  1.0000
  Ni  Ni53      1.0  0.91300  0.45700  0.00000  1.0000
  Ni  Ni54      1.0  0.54300  0.45700  0.00000  1.0000
  Ni  Ni55      1.0  0.45700  0.54300  0.00000  1.0000
  Ni  Ni56      1.0  0.08680  0.54300  0.00000  1.0000
  Ni  Ni57      1.0  0.41900  1.00000  0.50000  1.0000
  Ni  Ni58      1.0  0.58100  0.00002  0.50000  1.0000
  Ni  Ni59      1.0  0.00000  0.41900  0.50000  1.0000
  Ni  Ni60      1.0  0.58100  0.58100  0.50000  1.0000
  Ni  Ni61      1.0  0.41900  0.41900  0.50000  1.0000
  Ni  Ni62      1.0  0.00002  0.58100  0.50000  1.0000
  Ni  Ni63      1.0  0.26200  0.52500  0.34500  1.0000
  Ni  Ni64      1.0  0.73800  0.47500  0.34500  1.0000
  Ni  Ni65      1.0  0.47500  0.73800  0.34500  1.0000
  Ni  Ni66      1.0  0.26200  0.73800  0.34500  1.0000
  Ni  Ni67      1.0  0.73800  0.26200  0.34500  1.0000
  Ni  Ni68      1.0  0.52500  0.26200  0.34500  1.0000
  Ni  Ni69      1.0  0.73800  0.47500  0.65500  1.0000
  Ni  Ni70      1.0  0.73800  0.26200  0.65500  1.0000
  Ni  Ni71      1.0  0.52500  0.26200  0.65500  1.0000
  Ni  Ni72      1.0  0.47500  0.73800  0.65500  1.0000
  Ni  Ni73      1.0  0.26200  0.73800  0.65500  1.0000
  Ni  Ni74      1.0  0.26200  0.52500  0.65500  1.0000
  Ni  Ni75      1.0  0.14200  0.28400  0.50000  1.0000
  Ni  Ni76      1.0  0.85800  0.71600  0.50000  1.0000
  Ni  Ni77      1.0  0.71600  0.85800  0.50000  1.0000
  Ni  Ni78      1.0  0.14200  0.85800  0.50000  1.0000
  Ni  Ni79      1.0  0.85800  0.14200  0.50000  1.0000
  Ni  Ni80      1.0  0.28400  0.14200  0.50000  1.0000
  Si  Si1       1.0  0.60600  0.21100  0.18200  1.0000
  Si  Si2       1.0  0.39400  0.78900  0.18200  1.0000
  Si  Si3       1.0  0.78900  0.39400  0.18200  1.0000
  Si  Si4       1.0  0.60600  0.39400  0.18200  1.0000
  Si  Si5       1.0  0.39400  0.60600  0.18200  1.0000
  Si  Si6       1.0  0.21100  0.60600  0.18200  1.0000
  Si  Si7       1.0  0.39400  0.78900  0.81800  1.0000
  Si  Si8       1.0  0.39400  0.60600  0.81800  1.0000
  Si  Si9       1.0  0.21100  0.60600  0.81800  1.0000
  Si  Si10      1.0  0.78900  0.39400  0.81800  1.0000
  Si  Si11      1.0  0.60600  0.39400  0.81800  1.0000
  Si  Si12      1.0  0.60600  0.21100  0.81800  1.0000
  Si  Si13      1.0  0.17800  0.35600  0.23400  1.0000
  Si  Si14      1.0  0.82200  0.64400  0.23400  1.0000
  Si  Si15      1.0  0.64400  0.82200  0.23400  1.0000
  Si  Si16      1.0  0.17800  0.82200  0.23400  1.0000
  Si  Si17      1.0  0.82200  0.17800  0.23400  1.0000
  Si  Si18      1.0  0.35600  0.17800  0.23400  1.0000
  Si  Si19      1.0  0.82200  0.64400  0.76600  1.0000
  Si  Si20      1.0  0.82200  0.17800  0.76600  1.0000
  Si  Si21      1.0  0.35600  0.17800  0.76600  1.0000
  Si  Si22      1.0  0.64400  0.82200  0.76600  1.0000
  Si  Si23      1.0  0.17800  0.82200  0.76600  1.0000
  Si  Si24      1.0  0.17800  0.35600  0.76600  1.0000
  Si  Si25      1.0  0.12800  0.41200  0.50000  1.0000
  Si  Si26      1.0  0.87200  0.58800  0.50000  1.0000
  Si  Si27      1.0  0.58800  0.71600  0.50000  1.0000
  Si  Si28      1.0  0.28400  0.87200  0.50000  1.0000
  Si  Si29      1.0  0.71600  0.12800  0.50000  1.0000
  Si  Si30      1.0  0.41200  0.28400  0.50000  1.0000
  Si  Si31      1.0  0.71600  0.58800  0.50000  1.0000
  Si  Si32      1.0  0.87200  0.28400  0.50000  1.0000
  Si  Si33      1.0  0.41200  0.12800  0.50000  1.0000
  Si  Si34      1.0  0.58800  0.87200  0.50000  1.0000
  Si  Si35      1.0  0.12800  0.71600  0.50000  1.0000
  Si  Si36      1.0  0.28400  0.41200  0.50000  1.0000
  Si  Si37      1.0  0.50000  0.00000  0.26000  1.0000
  Si  Si38      1.0  0.00000  0.50000  0.26000  1.0000
  Si  Si39      1.0  0.50000  0.50000  0.26100  1.0000
  Si  Si40      1.0  0.50000  0.00000  0.74000  1.0000
  Si  Si41      1.0  0.50000  0.50000  0.73900  1.0000
  Si  Si42      1.0  0.00000  0.50000  0.74000  1.0000
  Si  Si43      1.0  0.38600  0.00001  0.00000  1.0000
  Si  Si44      1.0  0.61400  0.00000  0.00000  1.0000
  Si  Si45      1.0  0.00001  0.38600  0.00000  1.0000
  Si  Si46      1.0  0.61400  0.61400  0.00000  1.0000
  Si  Si47      1.0  0.38600  0.38600  0.00000  1.0000
  Si  Si48      1.0  0.00000  0.61400  0.00000  1.0000
  Si  Si49      1.0  0.16000  0.00001  0.00000  1.0000
  Si  Si50      1.0  0.84000  1.00000  0.00000  1.0000
  Si  Si51      1.0  0.00001  0.16000  0.00000  1.0000
  Si  Si52      1.0  0.84000  0.84000  0.00000  1.0000
  Si  Si53      1.0  0.16000  0.16000  0.00000  1.0000
  Si  Si54      1.0  0.00000  0.84000  0.00000  1.0000
  Si  Si55      1.0  0.14400  0.00000  0.50000  1.0000
  Si  Si56      1.0  0.85600  0.00000  0.50000  1.0000
  Si  Si57      1.0  0.00000  0.14400  0.50000  1.0000
  Si  Si58      1.0  0.85600  0.85600  0.50000  1.0000
  Si  Si59      1.0  0.14400  0.14400  0.50000  1.0000
  Si  Si60      1.0  0.00000  0.85600  0.50000  1.0000
  Si  Si61      1.0  0.33300  0.66700  0.50000  1.0000
  Si  Si62      1.0  0.66700  0.33300  0.50000  1.0000
  Ti  Ti1       1.0  0.00000  0.00000  0.32800  1.0000
  Ti  Ti2       1.0  0.00000  0.00000  0.67200  1.0000
  Ti  Ti3       1.0  0.27000  1.00000  0.30500  1.0000
  Ti  Ti4       1.0  0.73000  0.00000  0.30500  1.0000
  Ti  Ti5       1.0  0.00000  0.27000  0.30500  1.0000
  Ti  Ti6       1.0  0.73000  0.73000  0.30500  1.0000
  Ti  Ti7       1.0  0.27000  0.27000  0.30500  1.0000
  Ti  Ti8       1.0  0.00000  0.73000  0.30500  1.0000
  Ti  Ti9       1.0  0.27000  1.00000  0.69500  1.0000
  Ti  Ti10      1.0  0.73000  0.73000  0.69500  1.0000
  Ti  Ti11      1.0  0.00000  0.27000  0.69500  1.0000
  Ti  Ti12      1.0  0.00000  0.73000  0.69500  1.0000
  Ti  Ti13      1.0  0.27000  0.27000  0.69500  1.0000
  Ti  Ti14      1.0  0.73000  0.00000  0.69500  1.0000
  Ti  Ti15      1.0  0.57700  0.15400  0.50000  1.0000
  Ti  Ti16      1.0  0.42300  0.84600  0.50000  1.0000
  Ti  Ti17      1.0  0.84600  0.42300  0.50000  1.0000
  Ti  Ti18      1.0  0.57700  0.42300  0.50000  1.0000
  Ti  Ti19      1.0  0.42300  0.57700  0.50000  1.0000
  Ti  Ti20      1.0  0.15400  0.57700  0.50000  1.0000
  Ti  Ti21      1.0  0.24400  0.48800  0.00000  1.0000
  Ti  Ti22      1.0  0.75600  0.51200  0.00000  1.0000
  Ti  Ti23      1.0  0.51200  0.75600  0.00000  1.0000
  Ti  Ti24      1.0  0.24400  0.75600  0.00000  1.0000
  Ti  Ti25      1.0  0.75600  0.24400  0.00000  1.0000
  Ti  Ti26      1.0  0.48800  0.24400  0.00000  1.0000
