data_image0
_chemical_formula_structural       CoSe17U8
_chemical_formula_sum              "Co1 Se17 U8"
_cell_length_a       8.14791
_cell_length_b       8.14791
_cell_length_c       10.7923
_cell_angle_alpha    79.9218
_cell_angle_beta     100.078
_cell_angle_gamma    115.488

_space_group_name_H-M_alt    "P 1"
_space_group_IT_number       1

loop_
  _space_group_symop_operation_xyz
  'x, y, z'

loop_
  _atom_site_type_symbol
  _atom_site_label
  _atom_site_symmetry_multiplicity
  _atom_site_fract_x
  _atom_site_fract_y
  _atom_site_fract_z
  _atom_site_occupancy
  Co  Co1       1.0  0.00000  0.00000  0.00000  1.0000
  Se  Se1       1.0  0.52100  0.47900  0.16800  1.0000
  Se  Se2       1.0  0.47900  0.52100  0.83200  1.0000
  Se  Se3       1.0  0.29900  0.70100  0.24100  1.0000
  Se  Se4       1.0  0.70100  0.29900  0.75900  1.0000
  Se  Se5       1.0  0.05240  0.94800  0.22200  1.0000
  Se  Se6       1.0  0.94800  0.05240  0.77800  1.0000
  Se  Se7       1.0  0.21800  0.78200  0.72200  1.0000
  Se  Se8       1.0  0.78200  0.21800  0.27800  1.0000
  Se  Se9       1.0  0.32000  0.05130  0.97400  1.0000
  Se  Se10      1.0  0.05130  0.32000  0.02580  1.0000
  Se  Se11      1.0  0.68000  0.94900  0.02580  1.0000
  Se  Se12      1.0  0.94900  0.68000  0.97400  1.0000
  Se  Se13      1.0  0.43600  0.18300  0.46300  1.0000
  Se  Se14      1.0  0.18300  0.43600  0.53700  1.0000
  Se  Se15      1.0  0.56400  0.81700  0.53700  1.0000
  Se  Se16      1.0  0.81700  0.56400  0.46300  1.0000
  Se  Se17      1.0  1.00000  0.00000  0.50000  1.0000
  U   U1        1.0  0.30300  0.17900  0.70100  1.0000
  U   U2        1.0  0.17900  0.30300  0.29900  1.0000
  U   U3        1.0  0.69700  0.82100  0.29900  1.0000
  U   U4        1.0  0.82100  0.69700  0.70100  1.0000
  U   U5        1.0  0.68000  0.32000  0.01650  1.0000
  U   U6        1.0  0.32000  0.68000  0.98300  1.0000
  U   U7        1.0  0.20100  0.79900  0.45300  1.0000
  U   U8        1.0  0.79900  0.20100  0.54700  1.0000
