data_image0
_chemical_formula_structural       CrSe17U8
_chemical_formula_sum              "Cr1 Se17 U8"
_cell_length_a       8.17781
_cell_length_b       8.17781
_cell_length_c       10.8656
_cell_angle_alpha    80.3952
_cell_angle_beta     99.6048
_cell_angle_gamma    115.169

_space_group_name_H-M_alt    "P 1"
_space_group_IT_number       1

loop_
  _space_group_symop_operation_xyz
  'x, y, z'

loop_
  _atom_site_type_symbol
  _atom_site_label
  _atom_site_symmetry_multiplicity
  _atom_site_fract_x
  _atom_site_fract_y
  _atom_site_fract_z
  _atom_site_occupancy
  Cr  Cr1       1.0  0.00000  0.00000  0.00000  1.0000
  Se  Se1       1.0  0.00000  0.00000  0.50000  1.0000
  Se  Se2       1.0  0.52200  0.47800  0.17000  1.0000
  Se  Se3       1.0  0.47800  0.52200  0.83000  1.0000
  Se  Se4       1.0  0.29900  0.70100  0.24300  1.0000
  Se  Se5       1.0  0.70100  0.29900  0.75700  1.0000
  Se  Se6       1.0  0.21500  0.78500  0.72200  1.0000
  Se  Se7       1.0  0.78500  0.21500  0.27800  1.0000
  Se  Se8       1.0  0.32100  0.05470  0.97200  1.0000
  Se  Se9       1.0  0.05470  0.32100  0.02760  1.0000
  Se  Se10      1.0  0.67900  0.94500  0.02760  1.0000
  Se  Se11      1.0  0.94500  0.67900  0.97200  1.0000
  Se  Se12      1.0  0.43500  0.18200  0.46400  1.0000
  Se  Se13      1.0  0.18200  0.43500  0.53600  1.0000
  Se  Se14      1.0  0.56500  0.81800  0.53600  1.0000
  Se  Se15      1.0  0.81800  0.56500  0.46400  1.0000
  Se  Se16      1.0  0.05650  0.94300  0.22700  1.0000
  Se  Se17      1.0  0.94300  0.05650  0.77300  1.0000
  U   U1        1.0  0.30400  0.18100  0.70100  1.0000
  U   U2        1.0  0.18100  0.30400  0.29900  1.0000
  U   U3        1.0  0.69600  0.81900  0.29900  1.0000
  U   U4        1.0  0.81900  0.69600  0.70100  1.0000
  U   U5        1.0  0.68000  0.32000  0.01710  1.0000
  U   U6        1.0  0.32000  0.68000  0.98300  1.0000
  U   U7        1.0  0.20200  0.79800  0.45600  1.0000
  U   U8        1.0  0.79800  0.20200  0.54400  1.0000
