data_image0
_chemical_formula_structural       CsEuS2
_chemical_formula_sum              "Cs1 Eu1 S2"
_cell_length_a       4.37821
_cell_length_b       4.37821
_cell_length_c       8.31846
_cell_angle_alpha    90
_cell_angle_beta     105.258
_cell_angle_gamma    120

_space_group_name_H-M_alt    "P 1"
_space_group_IT_number       1

loop_
  _space_group_symop_operation_xyz
  'x, y, z'

loop_
  _atom_site_type_symbol
  _atom_site_label
  _atom_site_symmetry_multiplicity
  _atom_site_fract_x
  _atom_site_fract_y
  _atom_site_fract_z
  _atom_site_occupancy
  Cs  Cs1       1.0  0.00000  0.00000  0.00000  1.0000
  Eu  Eu1       1.0  0.00000  0.50000  0.50000  1.0000
  S   S1        1.0  0.54100  0.77100  0.31200  1.0000
  S   S2        1.0  0.45900  0.22900  0.68800  1.0000
