data_image0
_chemical_formula_structural       Cr2La8S14
_chemical_formula_sum              "Cr2 La8 S14"
_cell_length_a       10.4275
_cell_length_b       10.4267
_cell_length_c       6.36069
_cell_angle_alpha    90
_cell_angle_beta     90
_cell_angle_gamma    120.018

_space_group_name_H-M_alt    "P 1"
_space_group_IT_number       1

loop_
  _space_group_symop_operation_xyz
  'x, y, z'

loop_
  _atom_site_type_symbol
  _atom_site_label
  _atom_site_symmetry_multiplicity
  _atom_site_fract_x
  _atom_site_fract_y
  _atom_site_fract_z
  _atom_site_occupancy
  Cr  Cr1       1.0  0.33300  0.66700  0.66700  1.0000
  Cr  Cr2       1.0  0.66700  0.33300  0.16700  1.0000
  La  La1       1.0  0.14100  0.39600  0.25000  1.0000
  La  La2       1.0  0.85900  0.60400  0.75000  1.0000
  La  La3       1.0  0.60400  0.74600  0.25000  1.0000
  La  La4       1.0  0.25400  0.85800  0.25000  1.0000
  La  La5       1.0  0.74600  0.14200  0.75000  1.0000
  La  La6       1.0  0.39600  0.25400  0.75000  1.0000
  La  La7       1.0  0.00000  0.00001  0.01530  1.0000
  La  La8       1.0  0.00006  0.00000  0.51500  1.0000
  S   S1        1.0  0.33300  0.66700  0.03650  1.0000
  S   S2        1.0  0.66700  0.33300  0.53700  1.0000
  S   S3        1.0  0.41100  0.51500  0.51300  1.0000
  S   S4        1.0  0.58900  0.48500  0.01310  1.0000
  S   S5        1.0  0.48500  0.89700  0.51300  1.0000
  S   S6        1.0  0.10300  0.58800  0.51300  1.0000
  S   S7        1.0  0.89700  0.41200  0.01300  1.0000
  S   S8        1.0  0.51500  0.10300  0.01310  1.0000
  S   S9        1.0  0.09160  0.25700  0.76700  1.0000
  S   S10       1.0  0.90800  0.74300  0.26700  1.0000
  S   S11       1.0  0.74300  0.83500  0.76700  1.0000
  S   S12       1.0  0.16500  0.90800  0.76700  1.0000
  S   S13       1.0  0.83500  0.09170  0.26700  1.0000
  S   S14       1.0  0.25700  0.16500  0.26700  1.0000
