data_image0
_chemical_formula_structural       Cr2Gd8S14
_chemical_formula_sum              "Cr2 Gd8 S14"
_cell_length_a       9.92009
_cell_length_b       9.9239
_cell_length_c       6.447
_cell_angle_alpha    90
_cell_angle_beta     90
_cell_angle_gamma    120.062

_space_group_name_H-M_alt    "P 1"
_space_group_IT_number       1

loop_
  _space_group_symop_operation_xyz
  'x, y, z'

loop_
  _atom_site_type_symbol
  _atom_site_label
  _atom_site_symmetry_multiplicity
  _atom_site_fract_x
  _atom_site_fract_y
  _atom_site_fract_z
  _atom_site_occupancy
  Cr  Cr1       1.0  0.33300  0.66700  0.64700  1.0000
  Cr  Cr2       1.0  0.66700  0.33300  0.14700  1.0000
  Gd  Gd1       1.0  0.15300  0.40100  0.23000  1.0000
  Gd  Gd2       1.0  0.84700  0.59900  0.73000  1.0000
  Gd  Gd3       1.0  0.59900  0.75200  0.23000  1.0000
  Gd  Gd4       1.0  0.24800  0.84700  0.23000  1.0000
  Gd  Gd5       1.0  0.75200  0.15300  0.73000  1.0000
  Gd  Gd6       1.0  0.40100  0.24800  0.73000  1.0000
  Gd  Gd7       1.0  0.00000  0.00000  0.06410  1.0000
  Gd  Gd8       1.0  0.00002  0.00010  0.56400  1.0000
  S   S1        1.0  0.33300  0.66700  0.01530  1.0000
  S   S2        1.0  0.66700  0.33300  0.51500  1.0000
  S   S3        1.0  0.41900  0.51200  0.48400  1.0000
  S   S4        1.0  0.58100  0.48800  0.98400  1.0000
  S   S5        1.0  0.48700  0.90600  0.48400  1.0000
  S   S6        1.0  0.09360  0.58100  0.48400  1.0000
  S   S7        1.0  0.90600  0.41900  0.98400  1.0000
  S   S8        1.0  0.51300  0.09360  0.98400  1.0000
  S   S9        1.0  0.11300  0.25500  0.81900  1.0000
  S   S10       1.0  0.88700  0.74500  0.31900  1.0000
  S   S11       1.0  0.74400  0.85800  0.81900  1.0000
  S   S12       1.0  0.14200  0.88700  0.81900  1.0000
  S   S13       1.0  0.85800  0.11300  0.31900  1.0000
  S   S14       1.0  0.25600  0.14200  0.31900  1.0000
