data_image0
_chemical_formula_structural       Fe4La6S14
_chemical_formula_sum              "Fe4 La6 S14"
_cell_length_a       10.2523
_cell_length_b       10.2379
_cell_length_c       5.78452
_cell_angle_alpha    90
_cell_angle_beta     90
_cell_angle_gamma    120.311

_space_group_name_H-M_alt    "P 1"
_space_group_IT_number       1

loop_
  _space_group_symop_operation_xyz
  'x, y, z'

loop_
  _atom_site_type_symbol
  _atom_site_label
  _atom_site_symmetry_multiplicity
  _atom_site_fract_x
  _atom_site_fract_y
  _atom_site_fract_z
  _atom_site_occupancy
  Fe  Fe1       1.0  0.66700  0.33400  0.16600  1.0000
  Fe  Fe2       1.0  0.00000  0.00000  0.01670  1.0000
  Fe  Fe3       1.0  0.00013  0.00015  0.51700  1.0000
  Fe  Fe4       1.0  0.33300  0.66600  0.66600  1.0000
  La  La1       1.0  0.37400  0.22900  0.75400  1.0000
  La  La2       1.0  0.76900  0.14600  0.75400  1.0000
  La  La3       1.0  0.23100  0.85400  0.25400  1.0000
  La  La4       1.0  0.62600  0.77100  0.25400  1.0000
  La  La5       1.0  0.85600  0.62600  0.75400  1.0000
  La  La6       1.0  0.14400  0.37400  0.25400  1.0000
  S   S1        1.0  0.66600  0.33300  0.54700  1.0000
  S   S2        1.0  0.33400  0.66700  0.04730  1.0000
  S   S3        1.0  0.42300  0.52000  0.53500  1.0000
  S   S4        1.0  0.57700  0.48000  0.03550  1.0000
  S   S5        1.0  0.48100  0.90300  0.53500  1.0000
  S   S6        1.0  0.09650  0.57600  0.53500  1.0000
  S   S7        1.0  0.90300  0.42400  0.03540  1.0000
  S   S8        1.0  0.51900  0.09680  0.03500  1.0000
  S   S9        1.0  0.08960  0.23200  0.77100  1.0000
  S   S10       1.0  0.91000  0.76800  0.27100  1.0000
  S   S11       1.0  0.76800  0.85800  0.77100  1.0000
  S   S12       1.0  0.14400  0.90900  0.77100  1.0000
  S   S13       1.0  0.85600  0.09080  0.27100  1.0000
  S   S14       1.0  0.23200  0.14200  0.27100  1.0000
