data_image0
_chemical_formula_structural       Fe2La6Ni2S14
_chemical_formula_sum              "Fe2 La6 Ni2 S14"
_cell_length_a       10.1022
_cell_length_b       10.1012
_cell_length_c       5.87326
_cell_angle_alpha    90
_cell_angle_beta     90
_cell_angle_gamma    120.044

_space_group_name_H-M_alt    "P 1"
_space_group_IT_number       1

loop_
  _space_group_symop_operation_xyz
  'x, y, z'

loop_
  _atom_site_type_symbol
  _atom_site_label
  _atom_site_symmetry_multiplicity
  _atom_site_fract_x
  _atom_site_fract_y
  _atom_site_fract_z
  _atom_site_occupancy
  Fe  Fe1       1.0  0.33300  0.66700  0.66400  1.0000
  Fe  Fe2       1.0  0.66700  0.33300  0.16400  1.0000
  La  La1       1.0  0.15000  0.37300  0.24900  1.0000
  La  La2       1.0  0.85000  0.62700  0.74900  1.0000
  La  La3       1.0  0.62700  0.77700  0.24900  1.0000
  La  La4       1.0  0.22300  0.85000  0.24900  1.0000
  La  La5       1.0  0.77700  0.15000  0.74900  1.0000
  La  La6       1.0  0.37300  0.22300  0.74900  1.0000
  Ni  Ni1       1.0  0.00016  0.00000  0.02270  1.0000
  Ni  Ni2       1.0  0.00000  0.00000  0.52300  1.0000
  S   S1        1.0  0.33300  0.66700  0.03950  1.0000
  S   S2        1.0  0.66700  0.33300  0.54000  1.0000
  S   S3        1.0  0.42700  0.52200  0.53300  1.0000
  S   S4        1.0  0.57300  0.47800  0.03260  1.0000
  S   S5        1.0  0.47900  0.90600  0.53200  1.0000
  S   S6        1.0  0.09440  0.57300  0.53300  1.0000
  S   S7        1.0  0.90600  0.42700  0.03260  1.0000
  S   S8        1.0  0.52100  0.09420  0.03230  1.0000
  S   S9        1.0  0.09170  0.22700  0.78000  1.0000
  S   S10       1.0  0.90800  0.77300  0.28000  1.0000
  S   S11       1.0  0.77400  0.86500  0.78000  1.0000
  S   S12       1.0  0.13500  0.90800  0.78000  1.0000
  S   S13       1.0  0.86500  0.09180  0.28000  1.0000
  S   S14       1.0  0.22600  0.13500  0.28000  1.0000
