data_image0
_chemical_formula_structural       Ce20Rh16
_chemical_formula_sum              "Ce20 Rh16"
_cell_length_a       7.56082
_cell_length_b       15.0955
_cell_length_c       7.75715
_cell_angle_alpha    90
_cell_angle_beta     90
_cell_angle_gamma    90

_space_group_name_H-M_alt    "P 1"
_space_group_IT_number       1

loop_
  _space_group_symop_operation_xyz
  'x, y, z'

loop_
  _atom_site_type_symbol
  _atom_site_label
  _atom_site_symmetry_multiplicity
  _atom_site_fract_x
  _atom_site_fract_y
  _atom_site_fract_z
  _atom_site_occupancy
  Ce  Ce1       1.0  0.32000  0.25000  0.98500  1.0000
  Ce  Ce2       1.0  0.18000  0.75000  0.48500  1.0000
  Ce  Ce3       1.0  0.82000  0.25000  0.51500  1.0000
  Ce  Ce4       1.0  0.68000  0.75000  0.01500  1.0000
  Ce  Ce5       1.0  0.00631  0.09150  0.82100  1.0000
  Ce  Ce6       1.0  0.49400  0.90900  0.32100  1.0000
  Ce  Ce7       1.0  0.50600  0.40900  0.67900  1.0000
  Ce  Ce8       1.0  0.99400  0.59100  0.17900  1.0000
  Ce  Ce9       1.0  0.99400  0.90900  0.17900  1.0000
  Ce  Ce10      1.0  0.50600  0.09150  0.67900  1.0000
  Ce  Ce11      1.0  0.49400  0.59100  0.32100  1.0000
  Ce  Ce12      1.0  0.00631  0.40900  0.82100  1.0000
  Ce  Ce13      1.0  0.15700  0.12200  0.33200  1.0000
  Ce  Ce14      1.0  0.34300  0.87800  0.83200  1.0000
  Ce  Ce15      1.0  0.65700  0.37800  0.16800  1.0000
  Ce  Ce16      1.0  0.84300  0.62200  0.66800  1.0000
  Ce  Ce17      1.0  0.84300  0.87800  0.66800  1.0000
  Ce  Ce18      1.0  0.65700  0.12200  0.16800  1.0000
  Ce  Ce19      1.0  0.34300  0.62200  0.83200  1.0000
  Ce  Ce20      1.0  0.15700  0.37800  0.33200  1.0000
  Rh  Rh1       1.0  0.18300  0.96300  0.53700  1.0000
  Rh  Rh2       1.0  0.31700  0.03730  0.03670  1.0000
  Rh  Rh3       1.0  0.68300  0.53700  0.96300  1.0000
  Rh  Rh4       1.0  0.81700  0.46300  0.46300  1.0000
  Rh  Rh5       1.0  0.81700  0.03730  0.46300  1.0000
  Rh  Rh6       1.0  0.68300  0.96300  0.96300  1.0000
  Rh  Rh7       1.0  0.31700  0.46300  0.03670  1.0000
  Rh  Rh8       1.0  0.18300  0.53700  0.53700  1.0000
  Rh  Rh9       1.0  0.19300  0.25000  0.64500  1.0000
  Rh  Rh10      1.0  0.30700  0.75000  0.14500  1.0000
  Rh  Rh11      1.0  0.69300  0.25000  0.85500  1.0000
  Rh  Rh12      1.0  0.80700  0.75000  0.35500  1.0000
  Rh  Rh13      1.0  0.95200  0.25000  0.09810  1.0000
  Rh  Rh14      1.0  0.54800  0.75000  0.59800  1.0000
  Rh  Rh15      1.0  0.45200  0.25000  0.40200  1.0000
  Rh  Rh16      1.0  0.04750  0.75000  0.90200  1.0000
