data_image0
_chemical_formula_structural       Al2Co2La6S14
_chemical_formula_sum              "Al2 Co2 La6 S14"
_cell_length_a       10.1349
_cell_length_b       10.1345
_cell_length_c       5.93957
_cell_angle_alpha    90
_cell_angle_beta     90
_cell_angle_gamma    120.017

_space_group_name_H-M_alt    "P 1"
_space_group_IT_number       1

loop_
  _space_group_symop_operation_xyz
  'x, y, z'

loop_
  _atom_site_type_symbol
  _atom_site_label
  _atom_site_symmetry_multiplicity
  _atom_site_fract_x
  _atom_site_fract_y
  _atom_site_fract_z
  _atom_site_occupancy
  Al  Al1       1.0  0.33300  0.66700  0.66500  1.0000
  Al  Al2       1.0  0.66700  0.33300  0.16500  1.0000
  Co  Co1       1.0  0.00002  0.00000  0.02610  1.0000
  Co  Co2       1.0  0.00000  0.00001  0.52600  1.0000
  La  La1       1.0  0.14300  0.37100  0.24200  1.0000
  La  La2       1.0  0.85700  0.62900  0.74200  1.0000
  La  La3       1.0  0.62900  0.77200  0.24200  1.0000
  La  La4       1.0  0.22800  0.85700  0.24200  1.0000
  La  La5       1.0  0.77200  0.14300  0.74200  1.0000
  La  La6       1.0  0.37100  0.22800  0.74200  1.0000
  S   S1        1.0  0.33300  0.66700  0.03730  1.0000
  S   S2        1.0  0.66700  0.33300  0.53700  1.0000
  S   S3        1.0  0.42300  0.52000  0.52300  1.0000
  S   S4        1.0  0.57700  0.48000  0.02310  1.0000
  S   S5        1.0  0.48000  0.90200  0.52300  1.0000
  S   S6        1.0  0.09770  0.57700  0.52300  1.0000
  S   S7        1.0  0.90200  0.42300  0.02300  1.0000
  S   S8        1.0  0.52000  0.09770  0.02300  1.0000
  S   S9        1.0  0.08600  0.22100  0.78000  1.0000
  S   S10       1.0  0.91400  0.77900  0.28000  1.0000
  S   S11       1.0  0.77900  0.86500  0.78000  1.0000
  S   S12       1.0  0.13500  0.91400  0.78000  1.0000
  S   S13       1.0  0.86500  0.08600  0.28000  1.0000
  S   S14       1.0  0.22100  0.13500  0.28000  1.0000
