data_image0
_chemical_formula_structural       Al2Cr2La6S14
_chemical_formula_sum              "Al2 Cr2 La6 S14"
_cell_length_a       10.1881
_cell_length_b       10.1884
_cell_length_c       6.03104
_cell_angle_alpha    90
_cell_angle_beta     90
_cell_angle_gamma    120.008

_space_group_name_H-M_alt    "P 1"
_space_group_IT_number       1

loop_
  _space_group_symop_operation_xyz
  'x, y, z'

loop_
  _atom_site_type_symbol
  _atom_site_label
  _atom_site_symmetry_multiplicity
  _atom_site_fract_x
  _atom_site_fract_y
  _atom_site_fract_z
  _atom_site_occupancy
  Al  Al1       1.0  0.33300  0.66700  0.66500  1.0000
  Al  Al2       1.0  0.66700  0.33300  0.16500  1.0000
  Cr  Cr1       1.0  0.00000  0.00000  0.02660  1.0000
  Cr  Cr2       1.0  0.00000  0.00000  0.52700  1.0000
  La  La1       1.0  0.14200  0.37400  0.24600  1.0000
  La  La2       1.0  0.85800  0.62600  0.74600  1.0000
  La  La3       1.0  0.62600  0.76800  0.24600  1.0000
  La  La4       1.0  0.23200  0.85800  0.24600  1.0000
  La  La5       1.0  0.76800  0.14200  0.74600  1.0000
  La  La6       1.0  0.37400  0.23200  0.74600  1.0000
  S   S1        1.0  0.33300  0.66700  0.03370  1.0000
  S   S2        1.0  0.66700  0.33300  0.53400  1.0000
  S   S3        1.0  0.42000  0.51900  0.52200  1.0000
  S   S4        1.0  0.58000  0.48100  0.02180  1.0000
  S   S5        1.0  0.48100  0.90100  0.52200  1.0000
  S   S6        1.0  0.09920  0.58000  0.52200  1.0000
  S   S7        1.0  0.90100  0.42000  0.02170  1.0000
  S   S8        1.0  0.51900  0.09920  0.02170  1.0000
  S   S9        1.0  0.08820  0.23000  0.77800  1.0000
  S   S10       1.0  0.91200  0.77000  0.27800  1.0000
  S   S11       1.0  0.77000  0.85800  0.77800  1.0000
  S   S12       1.0  0.14200  0.91200  0.77800  1.0000
  S   S13       1.0  0.85800  0.08820  0.27800  1.0000
  S   S14       1.0  0.23000  0.14200  0.27800  1.0000
