data_image0
_chemical_formula_structural       Al2Fe2La6S14
_chemical_formula_sum              "Al2 Fe2 La6 S14"
_cell_length_a       10.2264
_cell_length_b       10.1713
_cell_length_c       5.9306
_cell_angle_alpha    90
_cell_angle_beta     90
_cell_angle_gamma    119.742

_space_group_name_H-M_alt    "P 1"
_space_group_IT_number       1

loop_
  _space_group_symop_operation_xyz
  'x, y, z'

loop_
  _atom_site_type_symbol
  _atom_site_label
  _atom_site_symmetry_multiplicity
  _atom_site_fract_x
  _atom_site_fract_y
  _atom_site_fract_z
  _atom_site_occupancy
  Al  Al1       1.0  0.33200  0.66600  0.66700  1.0000
  Al  Al2       1.0  0.66800  0.33400  0.16700  1.0000
  Fe  Fe1       1.0  0.00005  0.00001  0.01680  1.0000
  Fe  Fe2       1.0  0.00000  0.00000  0.51700  1.0000
  La  La1       1.0  0.14100  0.37200  0.24800  1.0000
  La  La2       1.0  0.85900  0.62800  0.74800  1.0000
  La  La3       1.0  0.62300  0.76700  0.24700  1.0000
  La  La4       1.0  0.23100  0.86000  0.24700  1.0000
  La  La5       1.0  0.76900  0.14000  0.74700  1.0000
  La  La6       1.0  0.37700  0.23300  0.74700  1.0000
  S   S1        1.0  0.33200  0.66600  0.04010  1.0000
  S   S2        1.0  0.66800  0.33400  0.54000  1.0000
  S   S3        1.0  0.41900  0.51900  0.52400  1.0000
  S   S4        1.0  0.58100  0.48100  0.02410  1.0000
  S   S5        1.0  0.47900  0.90100  0.52500  1.0000
  S   S6        1.0  0.09840  0.57900  0.52400  1.0000
  S   S7        1.0  0.90200  0.42100  0.02450  1.0000
  S   S8        1.0  0.52100  0.09890  0.02490  1.0000
  S   S9        1.0  0.08900  0.23000  0.77500  1.0000
  S   S10       1.0  0.91100  0.77000  0.27500  1.0000
  S   S11       1.0  0.76500  0.85500  0.77600  1.0000
  S   S12       1.0  0.14400  0.91200  0.77500  1.0000
  S   S13       1.0  0.85600  0.08770  0.27500  1.0000
  S   S14       1.0  0.23500  0.14500  0.27600  1.0000
