data_image0
_chemical_formula_structural       Cl6Cr2Rb2
_chemical_formula_sum              "Cl6 Cr2 Rb2"
_cell_length_a       6.29194
_cell_length_b       7.04501
_cell_length_c       7.0764
_cell_angle_alpha    119.853
_cell_angle_beta     92.2679
_cell_angle_gamma    90

_space_group_name_H-M_alt    "P 1"
_space_group_IT_number       1

loop_
  _space_group_symop_operation_xyz
  'x, y, z'

loop_
  _atom_site_type_symbol
  _atom_site_label
  _atom_site_symmetry_multiplicity
  _atom_site_fract_x
  _atom_site_fract_y
  _atom_site_fract_z
  _atom_site_occupancy
  Cl  Cl1       1.0  0.78000  0.31800  0.15900  1.0000
  Cl  Cl2       1.0  0.78000  0.84100  0.15900  1.0000
  Cl  Cl3       1.0  0.31600  0.16500  0.33000  1.0000
  Cl  Cl4       1.0  0.68400  0.83500  0.67000  1.0000
  Cl  Cl5       1.0  0.22000  0.15900  0.84100  1.0000
  Cl  Cl6       1.0  0.22000  0.68200  0.84100  1.0000
  Cr  Cr1       1.0  0.50000  0.00000  0.00000  1.0000
  Cr  Cr2       1.0  0.00000  0.00000  0.00000  1.0000
  Rb  Rb1       1.0  0.24400  0.66600  0.33200  1.0000
  Rb  Rb2       1.0  0.75600  0.33400  0.66800  1.0000
