data_image0
_chemical_formula_structural       Ga2La3Ni4
_chemical_formula_sum              "Ga2 La3 Ni4"
_cell_length_a       4.2332
_cell_length_b       5.53544
_cell_length_c       8.34717
_cell_angle_alpha    98.2018
_cell_angle_beta     90
_cell_angle_gamma    112.481

_space_group_name_H-M_alt    "P 1"
_space_group_IT_number       1

loop_
  _space_group_symop_operation_xyz
  'x, y, z'

loop_
  _atom_site_type_symbol
  _atom_site_label
  _atom_site_symmetry_multiplicity
  _atom_site_fract_x
  _atom_site_fract_y
  _atom_site_fract_z
  _atom_site_occupancy
  Ga  Ga1       1.0  0.32100  0.64300  0.21400  1.0000
  Ga  Ga2       1.0  0.67900  0.35700  0.78600  1.0000
  La  La1       1.0  0.00000  0.00000  0.00000  1.0000
  La  La2       1.0  0.62400  0.24800  0.37900  1.0000
  La  La3       1.0  0.37600  0.75200  0.62100  1.0000
  Ni  Ni1       1.0  0.74000  0.47900  0.08530  1.0000
  Ni  Ni2       1.0  0.91500  0.83000  0.36100  1.0000
  Ni  Ni3       1.0  0.08520  0.17000  0.63900  1.0000
  Ni  Ni4       1.0  0.26000  0.52100  0.91500  1.0000
