data_image0
_chemical_formula_structural       Cl6Cs2Cu2
_chemical_formula_sum              "Cl6 Cs2 Cu2"
_cell_length_a       7.20007
_cell_length_b       7.2005
_cell_length_c       6.01068
_cell_angle_alpha    90
_cell_angle_beta     90
_cell_angle_gamma    119.998

_space_group_name_H-M_alt    "P 1"
_space_group_IT_number       1

loop_
  _space_group_symop_operation_xyz
  'x, y, z'

loop_
  _atom_site_type_symbol
  _atom_site_label
  _atom_site_symmetry_multiplicity
  _atom_site_fract_x
  _atom_site_fract_y
  _atom_site_fract_z
  _atom_site_occupancy
  Cl  Cl1       1.0  0.15600  0.84400  0.27100  1.0000
  Cl  Cl2       1.0  0.68800  0.84400  0.27100  1.0000
  Cl  Cl3       1.0  0.15600  0.31200  0.27100  1.0000
  Cl  Cl4       1.0  0.31200  0.15600  0.77100  1.0000
  Cl  Cl5       1.0  0.84400  0.15600  0.77100  1.0000
  Cl  Cl6       1.0  0.84400  0.68800  0.77100  1.0000
  Cs  Cs1       1.0  0.66700  0.33300  0.27100  1.0000
  Cs  Cs2       1.0  0.33300  0.66700  0.77100  1.0000
  Cu  Cu1       1.0  0.00000  0.00001  0.02040  1.0000
  Cu  Cu2       1.0  0.00000  0.00000  0.52000  1.0000
