data_image0
_chemical_formula_structural       Mg2O6V2
_chemical_formula_sum              "Mg2 O6 V2"
_cell_length_a       5.26026
_cell_length_b       5.25704
_cell_length_c       5.68561
_cell_angle_alpha    90
_cell_angle_beta     62.4454
_cell_angle_gamma    90

_space_group_name_H-M_alt    "P 1"
_space_group_IT_number       1

loop_
  _space_group_symop_operation_xyz
  'x, y, z'

loop_
  _atom_site_type_symbol
  _atom_site_label
  _atom_site_symmetry_multiplicity
  _atom_site_fract_x
  _atom_site_fract_y
  _atom_site_fract_z
  _atom_site_occupancy
  Mg  Mg1       1.0  0.42700  0.00889  0.14600  1.0000
  Mg  Mg2       1.0  0.57300  0.50900  0.85400  1.0000
  O   O1        1.0  0.24000  0.26100  0.00211  1.0000
  O   O2        1.0  0.75800  0.26100  0.00211  1.0000
  O   O3        1.0  0.76300  0.52000  0.47400  1.0000
  O   O4        1.0  0.23700  0.02040  0.52600  1.0000
  O   O5        1.0  0.24200  0.76100  0.99800  1.0000
  O   O6        1.0  0.76000  0.76100  0.99800  1.0000
  V   V1        1.0  0.93000  0.51300  0.14100  1.0000
  V   V2        1.0  0.07030  0.01260  0.85900  1.0000
