data_image0
_chemical_formula_structural       Cs4S6
_chemical_formula_sum              "Cs4 S6"
_cell_length_a       6.73291
_cell_length_b       6.73291
_cell_length_c       8.25239
_cell_angle_alpha    90
_cell_angle_beta     90
_cell_angle_gamma    108.96

_space_group_name_H-M_alt    "P 1"
_space_group_IT_number       1

loop_
  _space_group_symop_operation_xyz
  'x, y, z'

loop_
  _atom_site_type_symbol
  _atom_site_label
  _atom_site_symmetry_multiplicity
  _atom_site_fract_x
  _atom_site_fract_y
  _atom_site_fract_z
  _atom_site_occupancy
  Cs  Cs1       1.0  0.56900  0.43100  0.18800  1.0000
  Cs  Cs2       1.0  0.10200  0.89800  0.46800  1.0000
  Cs  Cs3       1.0  0.43100  0.56900  0.68800  1.0000
  Cs  Cs4       1.0  0.89800  0.10200  0.96800  1.0000
  S   S1        1.0  0.20700  0.79300  0.99400  1.0000
  S   S2        1.0  0.05040  0.38200  0.35500  1.0000
  S   S3        1.0  0.61800  0.95000  0.35500  1.0000
  S   S4        1.0  0.79300  0.20700  0.49400  1.0000
  S   S5        1.0  0.38200  0.05040  0.85500  1.0000
  S   S6        1.0  0.95000  0.61800  0.85500  1.0000
