data_image0
_chemical_formula_structural       Ba2Ni4Si4
_chemical_formula_sum              "Ba2 Ni4 Si4"
_cell_length_a       4.21141
_cell_length_b       4.21141
_cell_length_c       11.3747
_cell_angle_alpha    90
_cell_angle_beta     90
_cell_angle_gamma    79.1984

_space_group_name_H-M_alt    "P 1"
_space_group_IT_number       1

loop_
  _space_group_symop_operation_xyz
  'x, y, z'

loop_
  _atom_site_type_symbol
  _atom_site_label
  _atom_site_symmetry_multiplicity
  _atom_site_fract_x
  _atom_site_fract_y
  _atom_site_fract_z
  _atom_site_occupancy
  Ba  Ba1       1.0  0.20300  0.79700  0.25000  1.0000
  Ba  Ba2       1.0  0.79700  0.20300  0.75000  1.0000
  Ni  Ni1       1.0  0.20400  0.20400  0.00000  1.0000
  Ni  Ni2       1.0  0.79600  0.79600  0.00000  1.0000
  Ni  Ni3       1.0  0.20400  0.20400  0.50000  1.0000
  Ni  Ni4       1.0  0.79600  0.79600  0.50000  1.0000
  Si  Si1       1.0  0.68800  0.31200  0.06760  1.0000
  Si  Si2       1.0  0.68800  0.31200  0.43200  1.0000
  Si  Si3       1.0  0.31200  0.68800  0.56800  1.0000
  Si  Si4       1.0  0.31200  0.68800  0.93200  1.0000
