data_image0
_chemical_formula_structural       Cl8Np2
_chemical_formula_sum              "Cl8 Np2"
_cell_length_a       6.96357
_cell_length_b       6.96357
_cell_length_c       6.96357
_cell_angle_alpha    114.382
_cell_angle_beta     107.073
_cell_angle_gamma    107.073

_space_group_name_H-M_alt    "P 1"
_space_group_IT_number       1

loop_
  _space_group_symop_operation_xyz
  'x, y, z'

loop_
  _atom_site_type_symbol
  _atom_site_label
  _atom_site_symmetry_multiplicity
  _atom_site_fract_x
  _atom_site_fract_y
  _atom_site_fract_z
  _atom_site_occupancy
  Cl  Cl1       1.0  0.56200  0.25600  0.19500  1.0000
  Cl  Cl2       1.0  0.93800  0.63300  0.19500  1.0000
  Cl  Cl3       1.0  0.06170  0.19500  0.25600  1.0000
  Cl  Cl4       1.0  0.56200  0.80500  0.36700  1.0000
  Cl  Cl5       1.0  0.43800  0.19500  0.63300  1.0000
  Cl  Cl6       1.0  0.93800  0.80500  0.74400  1.0000
  Cl  Cl7       1.0  0.06170  0.36700  0.80500  1.0000
  Cl  Cl8       1.0  0.43800  0.74400  0.80500  1.0000
  Np  Np1       1.0  0.25000  0.87500  0.12500  1.0000
  Np  Np2       1.0  0.75000  0.12500  0.87500  1.0000
