data_image0
_chemical_formula_structural       Cl6Mn2Na2
_chemical_formula_sum              "Cl6 Mn2 Na2"
_cell_length_a       6.57761
_cell_length_b       6.57761
_cell_length_c       7.26205
_cell_angle_alpha    90
_cell_angle_beta     116.928
_cell_angle_gamma    60

_space_group_name_H-M_alt    "P 1"
_space_group_IT_number       1

loop_
  _space_group_symop_operation_xyz
  'x, y, z'

loop_
  _atom_site_type_symbol
  _atom_site_label
  _atom_site_symmetry_multiplicity
  _atom_site_fract_x
  _atom_site_fract_y
  _atom_site_fract_z
  _atom_site_occupancy
  Cl  Cl1       1.0  0.78300  0.28400  0.23300  1.0000
  Cl  Cl2       1.0  0.51600  0.93300  0.23300  1.0000
  Cl  Cl3       1.0  0.16600  0.55100  0.23300  1.0000
  Cl  Cl4       1.0  0.83400  0.44900  0.76700  1.0000
  Cl  Cl5       1.0  0.48400  0.06710  0.76700  1.0000
  Cl  Cl6       1.0  0.21700  0.71600  0.76700  1.0000
  Mn  Mn1       1.0  0.68100  0.65900  0.02210  1.0000
  Mn  Mn2       1.0  0.31900  0.34100  0.97800  1.0000
  Na  Na1       1.0  0.29000  0.85500  0.43500  1.0000
  Na  Na2       1.0  0.71000  0.14500  0.56500  1.0000
