data_image0
_chemical_formula_structural       Cl6Ni2Rb2
_chemical_formula_sum              "Cl6 Ni2 Rb2"
_cell_length_a       6.97042
_cell_length_b       6.97042
_cell_length_c       5.91665
_cell_angle_alpha    90
_cell_angle_beta     90
_cell_angle_gamma    120

_space_group_name_H-M_alt    "P 1"
_space_group_IT_number       1

loop_
  _space_group_symop_operation_xyz
  'x, y, z'

loop_
  _atom_site_type_symbol
  _atom_site_label
  _atom_site_symmetry_multiplicity
  _atom_site_fract_x
  _atom_site_fract_y
  _atom_site_fract_z
  _atom_site_occupancy
  Cl  Cl1       1.0  0.15700  0.31400  0.25000  1.0000
  Cl  Cl2       1.0  0.15700  0.84300  0.25000  1.0000
  Cl  Cl3       1.0  0.68600  0.84300  0.25000  1.0000
  Cl  Cl4       1.0  0.31400  0.15700  0.75000  1.0000
  Cl  Cl5       1.0  0.84300  0.15700  0.75000  1.0000
  Cl  Cl6       1.0  0.84300  0.68600  0.75000  1.0000
  Ni  Ni1       1.0  0.00000  0.00000  0.00000  1.0000
  Ni  Ni2       1.0  0.00000  0.00000  0.50000  1.0000
  Rb  Rb1       1.0  0.66700  0.33300  0.25000  1.0000
  Rb  Rb2       1.0  0.33300  0.66700  0.75000  1.0000
