data_image0
_chemical_formula_structural       Cs4Se6
_chemical_formula_sum              "Cs4 Se6"
_cell_length_a       7.0841
_cell_length_b       7.0841
_cell_length_c       8.38192
_cell_angle_alpha    90
_cell_angle_beta     90
_cell_angle_gamma    109.684

_space_group_name_H-M_alt    "P 1"
_space_group_IT_number       1

loop_
  _space_group_symop_operation_xyz
  'x, y, z'

loop_
  _atom_site_type_symbol
  _atom_site_label
  _atom_site_symmetry_multiplicity
  _atom_site_fract_x
  _atom_site_fract_y
  _atom_site_fract_z
  _atom_site_occupancy
  Cs  Cs1       1.0  0.57600  0.42400  0.17600  1.0000
  Cs  Cs2       1.0  0.09730  0.90300  0.45700  1.0000
  Cs  Cs3       1.0  0.42400  0.57600  0.67600  1.0000
  Cs  Cs4       1.0  0.90300  0.09730  0.95700  1.0000
  Se  Se1       1.0  0.21100  0.78900  0.99700  1.0000
  Se  Se2       1.0  0.06770  0.40000  0.33400  1.0000
  Se  Se3       1.0  0.60000  0.93200  0.33400  1.0000
  Se  Se4       1.0  0.78900  0.21100  0.49700  1.0000
  Se  Se5       1.0  0.40000  0.06770  0.83400  1.0000
  Se  Se6       1.0  0.93200  0.60000  0.83400  1.0000
