data_image0
_chemical_formula_structural       Br6Cr2Cs2
_chemical_formula_sum              "Br6 Cr2 Cs2"
_cell_length_a       7.60155
_cell_length_b       7.60164
_cell_length_c       6.46218
_cell_angle_alpha    90
_cell_angle_beta     90
_cell_angle_gamma    120

_space_group_name_H-M_alt    "P 1"
_space_group_IT_number       1

loop_
  _space_group_symop_operation_xyz
  'x, y, z'

loop_
  _atom_site_type_symbol
  _atom_site_label
  _atom_site_symmetry_multiplicity
  _atom_site_fract_x
  _atom_site_fract_y
  _atom_site_fract_z
  _atom_site_occupancy
  Br  Br1       1.0  0.16000  0.32000  0.26400  1.0000
  Br  Br2       1.0  0.16000  0.84000  0.26400  1.0000
  Br  Br3       1.0  0.68000  0.84000  0.26400  1.0000
  Br  Br4       1.0  0.32000  0.16000  0.76400  1.0000
  Br  Br5       1.0  0.84000  0.16000  0.76400  1.0000
  Br  Br6       1.0  0.84000  0.68000  0.76400  1.0000
  Cr  Cr1       1.0  0.00000  0.00000  0.01400  1.0000
  Cr  Cr2       1.0  0.00000  0.00000  0.51400  1.0000
  Cs  Cs1       1.0  0.66700  0.33300  0.25300  1.0000
  Cs  Cs2       1.0  0.33300  0.66700  0.75300  1.0000
