data_image0
_chemical_formula_structural       In4S6
_chemical_formula_sum              "In4 S6"
_cell_length_a       6.64936
_cell_length_b       6.64936
_cell_length_c       7.09363
_cell_angle_alpha    117.949
_cell_angle_beta     62.051
_cell_angle_gamma    120

_space_group_name_H-M_alt    "P 1"
_space_group_IT_number       1

loop_
  _space_group_symop_operation_xyz
  'x, y, z'

loop_
  _atom_site_type_symbol
  _atom_site_label
  _atom_site_symmetry_multiplicity
  _atom_site_fract_x
  _atom_site_fract_y
  _atom_site_fract_z
  _atom_site_occupancy
  In  In1       1.0  0.64600  0.35400  0.06250  1.0000
  In  In2       1.0  0.85400  0.14600  0.43700  1.0000
  In  In3       1.0  0.14600  0.85400  0.56300  1.0000
  In  In4       1.0  0.35400  0.64600  0.93700  1.0000
  S   S1        1.0  0.25000  0.04880  0.25000  1.0000
  S   S2        1.0  0.95100  0.45100  0.25000  1.0000
  S   S3        1.0  0.54900  0.75000  0.25000  1.0000
  S   S4        1.0  0.45100  0.25000  0.75000  1.0000
  S   S5        1.0  0.04880  0.54900  0.75000  1.0000
  S   S6        1.0  0.75000  0.95100  0.75000  1.0000
