data_image0
_chemical_formula_structural       Cl4Nb2S4
_chemical_formula_sum              "Cl4 Nb2 S4"
_cell_length_a       6.31716
_cell_length_b       6.41214
_cell_length_c       6.79612
_cell_angle_alpha    100.058
_cell_angle_beta     110.766
_cell_angle_gamma    60.4888

_space_group_name_H-M_alt    "P 1"
_space_group_IT_number       1

loop_
  _space_group_symop_operation_xyz
  'x, y, z'

loop_
  _atom_site_type_symbol
  _atom_site_label
  _atom_site_symmetry_multiplicity
  _atom_site_fract_x
  _atom_site_fract_y
  _atom_site_fract_z
  _atom_site_occupancy
  Cl  Cl1       1.0  0.98300  0.58600  0.22700  1.0000
  Cl  Cl2       1.0  0.56900  0.41400  0.22700  1.0000
  Cl  Cl3       1.0  0.01660  0.41400  0.77300  1.0000
  Cl  Cl4       1.0  0.43100  0.58600  0.77300  1.0000
  Nb  Nb1       1.0  0.87000  0.26000  1.00000  1.0000
  Nb  Nb2       1.0  0.13000  0.74000  0.00000  1.0000
  S   S1        1.0  0.34300  0.00000  0.14200  1.0000
  S   S2        1.0  0.14800  0.00000  0.32000  1.0000
  S   S3        1.0  0.85200  0.00000  0.68000  1.0000
  S   S4        1.0  0.65700  0.00000  0.85800  1.0000
