data_image0
_chemical_formula_structural       B4Rh4Sr2
_chemical_formula_sum              "B4 Rh4 Sr2"
_cell_length_a       5.61003
_cell_length_b       5.61003
_cell_length_c       6.15937
_cell_angle_alpha    105.248
_cell_angle_beta     105.248
_cell_angle_gamma    114.992

_space_group_name_H-M_alt    "P 1"
_space_group_IT_number       1

loop_
  _space_group_symop_operation_xyz
  'x, y, z'

loop_
  _atom_site_type_symbol
  _atom_site_label
  _atom_site_symmetry_multiplicity
  _atom_site_fract_x
  _atom_site_fract_y
  _atom_site_fract_z
  _atom_site_occupancy
  B   B1        1.0  0.67200  0.32800  0.00000  1.0000
  B   B2        1.0  0.32800  0.67200  0.00000  1.0000
  B   B3        1.0  0.42200  0.57800  0.50000  1.0000
  B   B4        1.0  0.07780  0.92200  0.50000  1.0000
  Rh  Rh1       1.0  0.12000  0.62000  0.23900  1.0000
  Rh  Rh2       1.0  0.63000  0.63000  0.26100  1.0000
  Rh  Rh3       1.0  0.37000  0.37000  0.73900  1.0000
  Rh  Rh4       1.0  0.38000  0.88000  0.76100  1.0000
  Sr  Sr1       1.0  0.00000  0.00000  0.00000  1.0000
  Sr  Sr2       1.0  0.75000  0.25000  0.50000  1.0000
