data_image0
_chemical_formula_structural       Fe6Sn4
_chemical_formula_sum              "Fe6 Sn4"
_cell_length_a       5.31116
_cell_length_b       5.31117
_cell_length_c       7.24593
_cell_angle_alpha    68.5005
_cell_angle_beta     111.5
_cell_angle_gamma    120

_space_group_name_H-M_alt    "P 1"
_space_group_IT_number       1

loop_
  _space_group_symop_operation_xyz
  'x, y, z'

loop_
  _atom_site_type_symbol
  _atom_site_label
  _atom_site_symmetry_multiplicity
  _atom_site_fract_x
  _atom_site_fract_y
  _atom_site_fract_z
  _atom_site_occupancy
  Fe  Fe1       1.0  0.12700  0.39300  0.34200  1.0000
  Fe  Fe2       1.0  0.60700  0.39300  0.34200  1.0000
  Fe  Fe3       1.0  0.60700  0.87300  0.34200  1.0000
  Fe  Fe4       1.0  0.39300  0.12700  0.65800  1.0000
  Fe  Fe5       1.0  0.39300  0.60700  0.65800  1.0000
  Fe  Fe6       1.0  0.87300  0.60700  0.65800  1.0000
  Sn  Sn1       1.0  0.66900  0.33100  0.00685  1.0000
  Sn  Sn2       1.0  0.10400  0.89600  0.31300  1.0000
  Sn  Sn3       1.0  0.89600  0.10400  0.68700  1.0000
  Sn  Sn4       1.0  0.33100  0.66900  0.99300  1.0000
