data_image0
_chemical_formula_structural       K4Se6
_chemical_formula_sum              "K4 Se6"
_cell_length_a       6.5794
_cell_length_b       6.5794
_cell_length_c       7.68218
_cell_angle_alpha    90
_cell_angle_beta     90
_cell_angle_gamma    108.683

_space_group_name_H-M_alt    "P 1"
_space_group_IT_number       1

loop_
  _space_group_symop_operation_xyz
  'x, y, z'

loop_
  _atom_site_type_symbol
  _atom_site_label
  _atom_site_symmetry_multiplicity
  _atom_site_fract_x
  _atom_site_fract_y
  _atom_site_fract_z
  _atom_site_occupancy
  K   K1        1.0  0.90200  0.09820  0.12900  1.0000
  K   K2        1.0  0.58400  0.41600  0.34700  1.0000
  K   K3        1.0  0.09820  0.90200  0.62900  1.0000
  K   K4        1.0  0.41600  0.58400  0.84700  1.0000
  Se  Se1       1.0  0.41000  0.08820  0.00059  1.0000
  Se  Se2       1.0  0.91200  0.59000  0.00059  1.0000
  Se  Se3       1.0  0.20900  0.79100  0.18400  1.0000
  Se  Se4       1.0  0.08820  0.41000  0.50100  1.0000
  Se  Se5       1.0  0.59000  0.91200  0.50100  1.0000
  Se  Se6       1.0  0.79100  0.20900  0.68400  1.0000
