data_image0
_chemical_formula_structural       Mg2P8
_chemical_formula_sum              "Mg2 P8"
_cell_length_a       5.16856
_cell_length_b       5.10553
_cell_length_c       7.56393
_cell_angle_alpha    90
_cell_angle_beta     98.6771
_cell_angle_gamma    90

_space_group_name_H-M_alt    "P 1"
_space_group_IT_number       1

loop_
  _space_group_symop_operation_xyz
  'x, y, z'

loop_
  _atom_site_type_symbol
  _atom_site_label
  _atom_site_symmetry_multiplicity
  _atom_site_fract_x
  _atom_site_fract_y
  _atom_site_fract_z
  _atom_site_occupancy
  Mg  Mg1       1.0  0.00000  0.00000  0.00000  1.0000
  Mg  Mg2       1.0  0.00000  0.50000  0.50000  1.0000
  P   P1        1.0  0.39600  0.39000  0.09870  1.0000
  P   P2        1.0  0.74900  0.20700  0.24600  1.0000
  P   P3        1.0  0.25100  0.70700  0.25400  1.0000
  P   P4        1.0  0.60400  0.89000  0.40100  1.0000
  P   P5        1.0  0.39600  0.11000  0.59900  1.0000
  P   P6        1.0  0.74900  0.29300  0.74600  1.0000
  P   P7        1.0  0.25100  0.79300  0.75400  1.0000
  P   P8        1.0  0.60400  0.61000  0.90100  1.0000
