data_image0
_chemical_formula_structural       Cl6Ge2Rb2
_chemical_formula_sum              "Cl6 Ge2 Rb2"
_cell_length_a       8.04338
_cell_length_b       7.06203
_cell_length_c       5.83832
_cell_angle_alpha    90
_cell_angle_beta     106.367
_cell_angle_gamma    90

_space_group_name_H-M_alt    "P 1"
_space_group_IT_number       1

loop_
  _space_group_symop_operation_xyz
  'x, y, z'

loop_
  _atom_site_type_symbol
  _atom_site_label
  _atom_site_symmetry_multiplicity
  _atom_site_fract_x
  _atom_site_fract_y
  _atom_site_fract_z
  _atom_site_occupancy
  Cl  Cl1       1.0  0.32300  0.00392  0.18800  1.0000
  Cl  Cl2       1.0  0.32300  0.49600  0.18800  1.0000
  Cl  Cl3       1.0  0.87600  0.75000  0.32800  1.0000
  Cl  Cl4       1.0  0.12400  0.25000  0.67200  1.0000
  Cl  Cl5       1.0  0.67700  0.50400  0.81200  1.0000
  Cl  Cl6       1.0  0.67700  0.99600  0.81200  1.0000
  Ge  Ge1       1.0  0.12100  0.25000  0.07490  1.0000
  Ge  Ge2       1.0  0.87900  0.75000  0.92500  1.0000
  Rb  Rb1       1.0  0.70500  0.25000  0.32600  1.0000
  Rb  Rb2       1.0  0.29500  0.75000  0.67400  1.0000
