data_image0
_chemical_formula_structural       Dy6Ni4
_chemical_formula_sum              "Dy6 Ni4"
_cell_length_a       3.65939
_cell_length_b       6.89394
_cell_length_c       9.51337
_cell_angle_alpha    104.935
_cell_angle_beta     90
_cell_angle_gamma    105.391

_space_group_name_H-M_alt    "P 1"
_space_group_IT_number       1

loop_
  _space_group_symop_operation_xyz
  'x, y, z'

loop_
  _atom_site_type_symbol
  _atom_site_label
  _atom_site_symmetry_multiplicity
  _atom_site_fract_x
  _atom_site_fract_y
  _atom_site_fract_z
  _atom_site_occupancy
  Dy  Dy1       1.0  0.86800  0.73700  0.00248  1.0000
  Dy  Dy2       1.0  0.40300  0.80600  0.32700  1.0000
  Dy  Dy3       1.0  0.14400  0.28900  0.36800  1.0000
  Dy  Dy4       1.0  0.85600  0.71100  0.63200  1.0000
  Dy  Dy5       1.0  0.59700  0.19400  0.67300  1.0000
  Dy  Dy6       1.0  0.13200  0.26300  0.99800  1.0000
  Ni  Ni1       1.0  0.53500  0.06990  0.14400  1.0000
  Ni  Ni2       1.0  0.74400  0.48800  0.22700  1.0000
  Ni  Ni3       1.0  0.25600  0.51200  0.77300  1.0000
  Ni  Ni4       1.0  0.46500  0.93000  0.85600  1.0000
