data_image0
_chemical_formula_structural       B6Ru4
_chemical_formula_sum              "B6 Ru4"
_cell_length_a       2.91741
_cell_length_b       2.91728
_cell_length_c       12.8561
_cell_angle_alpha    90
_cell_angle_beta     90
_cell_angle_gamma    120.001

_space_group_name_H-M_alt    "P 1"
_space_group_IT_number       1

loop_
  _space_group_symop_operation_xyz
  'x, y, z'

loop_
  _atom_site_type_symbol
  _atom_site_label
  _atom_site_symmetry_multiplicity
  _atom_site_fract_x
  _atom_site_fract_y
  _atom_site_fract_z
  _atom_site_occupancy
  B   B1        1.0  0.66700  0.33300  0.03030  1.0000
  B   B2        1.0  0.66700  0.33300  0.25000  1.0000
  B   B3        1.0  0.66700  0.33300  0.47000  1.0000
  B   B4        1.0  0.33300  0.66700  0.53000  1.0000
  B   B5        1.0  0.33300  0.66700  0.75000  1.0000
  B   B6        1.0  0.33300  0.66700  0.97000  1.0000
  Ru  Ru1       1.0  0.33300  0.66700  0.14000  1.0000
  Ru  Ru2       1.0  0.33300  0.66700  0.36000  1.0000
  Ru  Ru3       1.0  0.66700  0.33300  0.64000  1.0000
  Ru  Ru4       1.0  0.66700  0.33300  0.86000  1.0000
