data_image0
_chemical_formula_structural       Cs9N9O27
_chemical_formula_sum              "Cs9 N9 O27"
_cell_length_a       10.2721
_cell_length_b       10.2721
_cell_length_c       7.29472
_cell_angle_alpha    90
_cell_angle_beta     90
_cell_angle_gamma    120

_space_group_name_H-M_alt    "P 1"
_space_group_IT_number       1

loop_
  _space_group_symop_operation_xyz
  'x, y, z'

loop_
  _atom_site_type_symbol
  _atom_site_label
  _atom_site_symmetry_multiplicity
  _atom_site_fract_x
  _atom_site_fract_y
  _atom_site_fract_z
  _atom_site_occupancy
  Cs  Cs1       1.0  0.45300  0.56800  0.63600  1.0000
  Cs  Cs2       1.0  0.43200  0.88500  0.96900  1.0000
  Cs  Cs3       1.0  0.11500  0.54700  0.30200  1.0000
  Cs  Cs4       1.0  0.78200  0.22500  0.64800  1.0000
  Cs  Cs5       1.0  0.77500  0.55700  0.98100  1.0000
  Cs  Cs6       1.0  0.44300  0.21800  0.31400  1.0000
  Cs  Cs7       1.0  0.11900  0.21800  0.00360  1.0000
  Cs  Cs8       1.0  0.78200  0.90200  0.33700  1.0000
  Cs  Cs9       1.0  0.09830  0.88100  0.67000  1.0000
  N   N1        1.0  0.43300  0.56700  0.10400  1.0000
  N   N2        1.0  0.43300  0.86700  0.43800  1.0000
  N   N3        1.0  0.13300  0.56700  0.77100  1.0000
  N   N4        1.0  0.09950  0.20100  0.53800  1.0000
  N   N5        1.0  0.79900  0.89900  0.87100  1.0000
  N   N6        1.0  0.10100  0.90000  0.20500  1.0000
  N   N7        1.0  0.73600  0.20400  0.12600  1.0000
  N   N8        1.0  0.79600  0.53200  0.46000  1.0000
  N   N9        1.0  0.46800  0.26400  0.79300  1.0000
  O   O1        1.0  0.23200  0.24100  0.58700  1.0000
  O   O2        1.0  0.75900  0.99100  0.92100  1.0000
  O   O3        1.0  0.00894  0.76800  0.25400  1.0000
  O   O4        1.0  0.99000  0.10300  0.63300  1.0000
  O   O5        1.0  0.89700  0.88700  0.96700  1.0000
  O   O6        1.0  0.11300  0.00975  0.30000  1.0000
  O   O7        1.0  0.56400  0.66700  0.05790  1.0000
  O   O8        1.0  0.33300  0.89700  0.39100  1.0000
  O   O9        1.0  0.10300  0.43600  0.72500  1.0000
  O   O10       1.0  0.87500  0.27800  0.10400  1.0000
  O   O11       1.0  0.72200  0.59800  0.43800  1.0000
  O   O12       1.0  0.40200  0.12500  0.77100  1.0000
  O   O13       1.0  0.32200  0.55100  0.01090  1.0000
  O   O14       1.0  0.44900  0.77000  0.34400  1.0000
  O   O15       1.0  0.23000  0.67800  0.67800  1.0000
  O   O16       1.0  0.64900  0.21900  0.01360  1.0000
  O   O17       1.0  0.78100  0.43000  0.34700  1.0000
  O   O18       1.0  0.57000  0.35100  0.68000  1.0000
  O   O19       1.0  0.07220  0.25300  0.39700  1.0000
  O   O20       1.0  0.74700  0.81900  0.73000  1.0000
  O   O21       1.0  0.18100  0.92800  0.06340  1.0000
  O   O22       1.0  0.67700  0.11400  0.26000  1.0000
  O   O23       1.0  0.88600  0.56300  0.59300  1.0000
  O   O24       1.0  0.43700  0.32300  0.92600  1.0000
  O   O25       1.0  0.41100  0.48300  0.24000  1.0000
  O   O26       1.0  0.51700  0.92800  0.57400  1.0000
  O   O27       1.0  0.07190  0.58900  0.90700  1.0000
