data_image0
_chemical_formula_structural       C2Mn2O6
_chemical_formula_sum              "C2 Mn2 O6"
_cell_length_a       5.83266
_cell_length_b       5.83265
_cell_length_c       5.83265
_cell_angle_alpha    48.4841
_cell_angle_beta     48.4841
_cell_angle_gamma    48.4841

_space_group_name_H-M_alt    "P 1"
_space_group_IT_number       1

loop_
  _space_group_symop_operation_xyz
  'x, y, z'

loop_
  _atom_site_type_symbol
  _atom_site_label
  _atom_site_symmetry_multiplicity
  _atom_site_fract_x
  _atom_site_fract_y
  _atom_site_fract_z
  _atom_site_occupancy
  C   C1        1.0  0.25000  0.25000  0.25000  1.0000
  C   C2        1.0  0.75000  0.75000  0.75000  1.0000
  Mn  Mn1       1.0  0.00000  0.00000  0.00000  1.0000
  Mn  Mn2       1.0  0.50000  0.50000  0.50000  1.0000
  O   O1        1.0  0.75000  0.48000  0.02010  1.0000
  O   O2        1.0  0.52000  0.98000  0.25000  1.0000
  O   O3        1.0  0.02010  0.75000  0.48000  1.0000
  O   O4        1.0  0.98000  0.25000  0.52000  1.0000
  O   O5        1.0  0.48000  0.02010  0.75000  1.0000
  O   O6        1.0  0.25000  0.52000  0.98000  1.0000
