data_image0
_chemical_formula_structural       Cl4Cu4O2
_chemical_formula_sum              "Cl4 Cu4 O2"
_cell_length_a       6.11568
_cell_length_b       6.11568
_cell_length_c       6.1363
_cell_angle_alpha    111.781
_cell_angle_beta     111.781
_cell_angle_gamma    104.795

_space_group_name_H-M_alt    "P 1"
_space_group_IT_number       1

loop_
  _space_group_symop_operation_xyz
  'x, y, z'

loop_
  _atom_site_type_symbol
  _atom_site_label
  _atom_site_symmetry_multiplicity
  _atom_site_fract_x
  _atom_site_fract_y
  _atom_site_fract_z
  _atom_site_occupancy
  Cl  Cl1       1.0  0.83100  0.58100  0.16200  1.0000
  Cl  Cl2       1.0  0.41900  0.16900  0.33800  1.0000
  Cl  Cl3       1.0  0.58100  0.83100  0.66200  1.0000
  Cl  Cl4       1.0  0.16900  0.41900  0.83800  1.0000
  Cu  Cu1       1.0  0.50000  0.00000  0.00000  1.0000
  Cu  Cu2       1.0  0.00000  0.00000  0.00000  1.0000
  Cu  Cu3       1.0  0.00000  0.00000  0.50000  1.0000
  Cu  Cu4       1.0  0.00000  0.50000  0.50000  1.0000
  O   O1        1.0  0.87500  0.12500  0.25000  1.0000
  O   O2        1.0  0.12500  0.87500  0.75000  1.0000
