data_image0
_chemical_formula_structural       O4S2Sc4
_chemical_formula_sum              "O4 S2 Sc4"
_cell_length_a       3.52612
_cell_length_b       3.52602
_cell_length_c       12.5344
_cell_angle_alpha    90
_cell_angle_beta     90
_cell_angle_gamma    120.001

_space_group_name_H-M_alt    "P 1"
_space_group_IT_number       1

loop_
  _space_group_symop_operation_xyz
  'x, y, z'

loop_
  _atom_site_type_symbol
  _atom_site_label
  _atom_site_symmetry_multiplicity
  _atom_site_fract_x
  _atom_site_fract_y
  _atom_site_fract_z
  _atom_site_occupancy
  O   O1        1.0  0.33300  0.66700  0.06600  1.0000
  O   O2        1.0  0.33300  0.66700  0.43400  1.0000
  O   O3        1.0  0.66700  0.33300  0.56600  1.0000
  O   O4        1.0  0.66700  0.33300  0.93400  1.0000
  S   S1        1.0  0.00000  0.00000  0.25000  1.0000
  S   S2        1.0  0.00000  0.00000  0.75000  1.0000
  Sc  Sc1       1.0  0.66700  0.33300  0.10700  1.0000
  Sc  Sc2       1.0  0.66700  0.33300  0.39300  1.0000
  Sc  Sc3       1.0  0.33300  0.66700  0.60700  1.0000
  Sc  Sc4       1.0  0.33300  0.66700  0.89300  1.0000
