data_image0
_chemical_formula_structural       F6NaRhTl2
_chemical_formula_sum              "F6 Na1 Rh1 Tl2"
_cell_length_a       5.9327
_cell_length_b       5.9327
_cell_length_c       5.9327
_cell_angle_alpha    120
_cell_angle_beta     90
_cell_angle_gamma    120

_space_group_name_H-M_alt    "P 1"
_space_group_IT_number       1

loop_
  _space_group_symop_operation_xyz
  'x, y, z'

loop_
  _atom_site_type_symbol
  _atom_site_label
  _atom_site_symmetry_multiplicity
  _atom_site_fract_x
  _atom_site_fract_y
  _atom_site_fract_z
  _atom_site_occupancy
  F   F1        1.0  0.23800  0.00000  0.23800  1.0000
  F   F2        1.0  0.23800  0.47600  0.23800  1.0000
  F   F3        1.0  0.76200  0.00000  0.23800  1.0000
  F   F4        1.0  0.23800  0.00000  0.76200  1.0000
  F   F5        1.0  0.76200  0.52400  0.76200  1.0000
  F   F6        1.0  0.76200  0.00000  0.76200  1.0000
  Na  Na1       1.0  0.50000  0.00000  0.50000  1.0000
  Rh  Rh1       1.0  0.00000  0.00000  0.00000  1.0000
  Tl  Tl1       1.0  0.75000  0.50000  0.25000  1.0000
  Tl  Tl2       1.0  0.25000  0.50000  0.75000  1.0000
