data_image0
_chemical_formula_structural       Rh6Te4
_chemical_formula_sum              "Rh6 Te4"
_cell_length_a       3.7248
_cell_length_b       6.54145
_cell_length_c       7.80367
_cell_angle_alpha    90
_cell_angle_beta     90
_cell_angle_gamma    106.541

_space_group_name_H-M_alt    "P 1"
_space_group_IT_number       1

loop_
  _space_group_symop_operation_xyz
  'x, y, z'

loop_
  _atom_site_type_symbol
  _atom_site_label
  _atom_site_symmetry_multiplicity
  _atom_site_fract_x
  _atom_site_fract_y
  _atom_site_fract_z
  _atom_site_occupancy
  Rh  Rh1       1.0  0.33900  0.67700  0.05970  1.0000
  Rh  Rh2       1.0  0.53600  0.07170  0.25000  1.0000
  Rh  Rh3       1.0  0.33900  0.67700  0.44000  1.0000
  Rh  Rh4       1.0  0.66100  0.32300  0.56000  1.0000
  Rh  Rh5       1.0  0.46400  0.92800  0.75000  1.0000
  Rh  Rh6       1.0  0.66100  0.32300  0.94000  1.0000
  Te  Te1       1.0  0.00000  0.00000  0.00000  1.0000
  Te  Te2       1.0  0.74700  0.49300  0.25000  1.0000
  Te  Te3       1.0  0.00000  0.00000  0.50000  1.0000
  Te  Te4       1.0  0.25300  0.50700  0.75000  1.0000
