data_image0
_chemical_formula_structural       K4P4Pd2
_chemical_formula_sum              "K4 P4 Pd2"
_cell_length_a       5.95824
_cell_length_b       6.36892
_cell_length_c       7.78125
_cell_angle_alpha    65.8424
_cell_angle_beta     90
_cell_angle_gamma    90

_space_group_name_H-M_alt    "P 1"
_space_group_IT_number       1

loop_
  _space_group_symop_operation_xyz
  'x, y, z'

loop_
  _atom_site_type_symbol
  _atom_site_label
  _atom_site_symmetry_multiplicity
  _atom_site_fract_x
  _atom_site_fract_y
  _atom_site_fract_z
  _atom_site_occupancy
  K   K1        1.0  0.75000  0.42400  0.15200  1.0000
  K   K2        1.0  0.75000  0.78800  0.42400  1.0000
  K   K3        1.0  0.25000  0.21200  0.57600  1.0000
  K   K4        1.0  0.25000  0.57600  0.84800  1.0000
  P   P1        1.0  0.25000  0.05970  0.22200  1.0000
  P   P2        1.0  0.25000  0.71800  0.22200  1.0000
  P   P3        1.0  0.75000  0.28200  0.77800  1.0000
  P   P4        1.0  0.75000  0.94000  0.77800  1.0000
  Pd  Pd1       1.0  0.00000  0.00000  0.00000  1.0000
  Pd  Pd2       1.0  0.50000  0.00000  0.00000  1.0000
