data_image0
_chemical_formula_structural       Mn2Ni2O6
_chemical_formula_sum              "Mn2 Ni2 O6"
_cell_length_a       5.34379
_cell_length_b       5.34379
_cell_length_c       5.34379
_cell_angle_alpha    54.9384
_cell_angle_beta     54.9384
_cell_angle_gamma    54.9384

_space_group_name_H-M_alt    "P 1"
_space_group_IT_number       1

loop_
  _space_group_symop_operation_xyz
  'x, y, z'

loop_
  _atom_site_type_symbol
  _atom_site_label
  _atom_site_symmetry_multiplicity
  _atom_site_fract_x
  _atom_site_fract_y
  _atom_site_fract_z
  _atom_site_occupancy
  Mn  Mn1       1.0  0.15700  0.15700  0.15700  1.0000
  Mn  Mn2       1.0  0.84300  0.84300  0.84300  1.0000
  Ni  Ni1       1.0  0.35400  0.35400  0.35400  1.0000
  Ni  Ni2       1.0  0.64600  0.64600  0.64600  1.0000
  O   O1        1.0  0.77000  0.43900  0.05210  1.0000
  O   O2        1.0  0.56100  0.94800  0.23000  1.0000
  O   O3        1.0  0.05210  0.77000  0.43900  1.0000
  O   O4        1.0  0.94800  0.23000  0.56100  1.0000
  O   O5        1.0  0.43900  0.05210  0.77000  1.0000
  O   O6        1.0  0.23000  0.56100  0.94800  1.0000
