data_image0
_chemical_formula_structural       Al4Se6
_chemical_formula_sum              "Al4 Se6"
_cell_length_a       6.79336
_cell_length_b       6.84549
_cell_length_c       7.42663
_cell_angle_alpha    116.565
_cell_angle_beta     90
_cell_angle_gamma    119.748

_space_group_name_H-M_alt    "P 1"
_space_group_IT_number       1

loop_
  _space_group_symop_operation_xyz
  'x, y, z'

loop_
  _atom_site_type_symbol
  _atom_site_label
  _atom_site_symmetry_multiplicity
  _atom_site_fract_x
  _atom_site_fract_y
  _atom_site_fract_z
  _atom_site_occupancy
  Al  Al1       1.0  0.36000  0.91800  0.37300  1.0000
  Al  Al2       1.0  0.73100  0.59800  0.38400  1.0000
  Al  Al3       1.0  0.55800  0.91800  0.87300  1.0000
  Al  Al4       1.0  0.86700  0.59800  0.88400  1.0000
  Se  Se1       1.0  0.24500  0.65400  0.98800  1.0000
  Se  Se2       1.0  0.56900  0.32300  0.99700  1.0000
  Se  Se3       1.0  0.92100  0.00693  0.00837  1.0000
  Se  Se4       1.0  0.40800  0.65400  0.48800  1.0000
  Se  Se5       1.0  0.75400  0.32300  0.49700  1.0000
  Se  Se6       1.0  0.08560  0.00694  0.50800  1.0000
