data_image0
_chemical_formula_structural       Si4U6
_chemical_formula_sum              "Si4 U6"
_cell_length_a       7.24715
_cell_length_b       7.24715
_cell_length_c       3.88002
_cell_angle_alpha    90
_cell_angle_beta     90
_cell_angle_gamma    90

_space_group_name_H-M_alt    "P 1"
_space_group_IT_number       1

loop_
  _space_group_symop_operation_xyz
  'x, y, z'

loop_
  _atom_site_type_symbol
  _atom_site_label
  _atom_site_symmetry_multiplicity
  _atom_site_fract_x
  _atom_site_fract_y
  _atom_site_fract_z
  _atom_site_occupancy
  Si  Si1       1.0  0.61500  0.11500  0.00000  1.0000
  Si  Si2       1.0  0.11500  0.38500  0.00000  1.0000
  Si  Si3       1.0  0.88500  0.61500  0.00000  1.0000
  Si  Si4       1.0  0.38500  0.88500  0.00000  1.0000
  U   U1        1.0  0.00000  0.00000  0.00000  1.0000
  U   U2        1.0  0.50000  0.50000  0.00000  1.0000
  U   U3        1.0  0.31600  0.18400  0.50000  1.0000
  U   U4        1.0  0.81600  0.31600  0.50000  1.0000
  U   U5        1.0  0.18400  0.68400  0.50000  1.0000
  U   U6        1.0  0.68400  0.81600  0.50000  1.0000
