data_image0
_chemical_formula_structural       Rb4Se6
_chemical_formula_sum              "Rb4 Se6"
_cell_length_a       6.79097
_cell_length_b       6.79097
_cell_length_c       8.0013
_cell_angle_alpha    90
_cell_angle_beta     90
_cell_angle_gamma    109.118

_space_group_name_H-M_alt    "P 1"
_space_group_IT_number       1

loop_
  _space_group_symop_operation_xyz
  'x, y, z'

loop_
  _atom_site_type_symbol
  _atom_site_label
  _atom_site_symmetry_multiplicity
  _atom_site_fract_x
  _atom_site_fract_y
  _atom_site_fract_z
  _atom_site_occupancy
  Rb  Rb1       1.0  0.58000  0.42000  0.17000  1.0000
  Rb  Rb2       1.0  0.09730  0.90300  0.45300  1.0000
  Rb  Rb3       1.0  0.42000  0.58000  0.67000  1.0000
  Rb  Rb4       1.0  0.90300  0.09730  0.95300  1.0000
  Se  Se1       1.0  0.21100  0.78900  0.00060  1.0000
  Se  Se2       1.0  0.07790  0.40600  0.32600  1.0000
  Se  Se3       1.0  0.59400  0.92200  0.32600  1.0000
  Se  Se4       1.0  0.78900  0.21100  0.50100  1.0000
  Se  Se5       1.0  0.40600  0.07790  0.82600  1.0000
  Se  Se6       1.0  0.92200  0.59400  0.82600  1.0000
