data_image0
_chemical_formula_structural       B2CaO6Sn
_chemical_formula_sum              "B2 Ca1 O6 Sn1"
_cell_length_a       4.87306
_cell_length_b       4.87306
_cell_length_c       6.01052
_cell_angle_alpha    113.915
_cell_angle_beta     66.0852
_cell_angle_gamma    120

_space_group_name_H-M_alt    "P 1"
_space_group_IT_number       1

loop_
  _space_group_symop_operation_xyz
  'x, y, z'

loop_
  _atom_site_type_symbol
  _atom_site_label
  _atom_site_symmetry_multiplicity
  _atom_site_fract_x
  _atom_site_fract_y
  _atom_site_fract_z
  _atom_site_occupancy
  B   B1        1.0  0.24000  0.76000  0.27900  1.0000
  B   B2        1.0  0.76000  0.24000  0.72100  1.0000
  Ca  Ca1       1.0  0.00000  0.00000  0.00000  1.0000
  O   O1        1.0  0.51200  0.73200  0.27100  1.0000
  O   O2        1.0  0.94800  0.48800  0.27100  1.0000
  O   O3        1.0  0.26800  0.05210  0.27100  1.0000
  O   O4        1.0  0.73200  0.94800  0.72900  1.0000
  O   O5        1.0  0.05210  0.51200  0.72900  1.0000
  O   O6        1.0  0.48800  0.26800  0.72900  1.0000
  Sn  Sn1       1.0  0.50000  0.50000  0.50000  1.0000
