data_image0
_chemical_formula_structural       Bi2Cl2O4Pb2
_chemical_formula_sum              "Bi2 Cl2 O4 Pb2"
_cell_length_a       5.60177
_cell_length_b       5.65075
_cell_length_c       6.7895
_cell_angle_alpha    65.409
_cell_angle_beta     90
_cell_angle_gamma    90

_space_group_name_H-M_alt    "P 1"
_space_group_IT_number       1

loop_
  _space_group_symop_operation_xyz
  'x, y, z'

loop_
  _atom_site_type_symbol
  _atom_site_label
  _atom_site_symmetry_multiplicity
  _atom_site_fract_x
  _atom_site_fract_y
  _atom_site_fract_z
  _atom_site_occupancy
  Bi  Bi1       1.0  0.25000  0.91000  0.18000  1.0000
  Bi  Bi2       1.0  0.75000  0.09000  0.82000  1.0000
  Cl  Cl1       1.0  0.25000  0.25100  0.49800  1.0000
  Cl  Cl2       1.0  0.75000  0.74900  0.50200  1.0000
  O   O1        1.0  0.00000  0.23900  0.00000  1.0000
  O   O2        1.0  0.50000  0.23900  0.00000  1.0000
  O   O3        1.0  0.00000  0.76100  0.00000  1.0000
  O   O4        1.0  0.50000  0.76100  0.00000  1.0000
  Pb  Pb1       1.0  0.75000  0.39000  0.22000  1.0000
  Pb  Pb2       1.0  0.25000  0.61000  0.78000  1.0000
