data_image0
_chemical_formula_structural       Cs2P2S6
_chemical_formula_sum              "Cs2 P2 S6"
_cell_length_a       7.23597
_cell_length_b       7.53543
_cell_length_c       7.53543
_cell_angle_alpha    100.604
_cell_angle_beta     61.3061
_cell_angle_gamma    118.694

_space_group_name_H-M_alt    "P 1"
_space_group_IT_number       1

loop_
  _space_group_symop_operation_xyz
  'x, y, z'

loop_
  _atom_site_type_symbol
  _atom_site_label
  _atom_site_symmetry_multiplicity
  _atom_site_fract_x
  _atom_site_fract_y
  _atom_site_fract_z
  _atom_site_occupancy
  Cs  Cs1       1.0  0.73800  0.73800  0.26200  1.0000
  Cs  Cs2       1.0  0.26200  0.26200  0.73800  1.0000
  P   P1        1.0  0.00000  0.34400  0.34400  1.0000
  P   P2        1.0  0.00000  0.65600  0.65600  1.0000
  S   S1        1.0  0.23500  0.23800  0.23800  1.0000
  S   S2        1.0  0.76500  0.23800  0.23800  1.0000
  S   S3        1.0  0.17300  0.67300  0.32700  1.0000
  S   S4        1.0  0.82700  0.32700  0.67300  1.0000
  S   S5        1.0  0.23500  0.76200  0.76200  1.0000
  S   S6        1.0  0.76500  0.76200  0.76200  1.0000
