data_image0
_chemical_formula_structural       K4O4Zn2
_chemical_formula_sum              "K4 O4 Zn2"
_cell_length_a       5.40691
_cell_length_b       5.97758
_cell_length_c       6.57623
_cell_angle_alpha    117.032
_cell_angle_beta     114.274
_cell_angle_gamma    90

_space_group_name_H-M_alt    "P 1"
_space_group_IT_number       1

loop_
  _space_group_symop_operation_xyz
  'x, y, z'

loop_
  _atom_site_type_symbol
  _atom_site_label
  _atom_site_symmetry_multiplicity
  _atom_site_fract_x
  _atom_site_fract_y
  _atom_site_fract_z
  _atom_site_occupancy
  K   K1        1.0  0.65300  0.51900  0.30600  1.0000
  K   K2        1.0  0.15300  0.78700  0.30600  1.0000
  K   K3        1.0  0.84700  0.21300  0.69400  1.0000
  K   K4        1.0  0.34700  0.48100  0.69400  1.0000
  O   O1        1.0  0.09610  0.28500  0.19200  1.0000
  O   O2        1.0  0.59600  0.90700  0.19200  1.0000
  O   O3        1.0  0.40400  0.09330  0.80800  1.0000
  O   O4        1.0  0.90400  0.71500  0.80800  1.0000
  Zn  Zn1       1.0  0.25000  0.00000  0.00000  1.0000
  Zn  Zn2       1.0  0.75000  0.00000  0.00000  1.0000
