data_image0
_chemical_formula_structural       Cd2P8
_chemical_formula_sum              "Cd2 P8"
_cell_length_a       5.30987
_cell_length_b       5.17169
_cell_length_c       7.67818
_cell_angle_alpha    90
_cell_angle_beta     80.5581
_cell_angle_gamma    90

_space_group_name_H-M_alt    "P 1"
_space_group_IT_number       1

loop_
  _space_group_symop_operation_xyz
  'x, y, z'

loop_
  _atom_site_type_symbol
  _atom_site_label
  _atom_site_symmetry_multiplicity
  _atom_site_fract_x
  _atom_site_fract_y
  _atom_site_fract_z
  _atom_site_occupancy
  Cd  Cd1       1.0  0.00000  0.00000  0.00000  1.0000
  Cd  Cd2       1.0  0.00000  0.50000  0.50000  1.0000
  P   P1        1.0  0.60100  0.39600  0.09940  1.0000
  P   P2        1.0  0.26200  0.20900  0.24800  1.0000
  P   P3        1.0  0.73800  0.70900  0.25200  1.0000
  P   P4        1.0  0.39900  0.89600  0.40100  1.0000
  P   P5        1.0  0.60100  0.10400  0.59900  1.0000
  P   P6        1.0  0.26200  0.29100  0.74800  1.0000
  P   P7        1.0  0.73800  0.79100  0.75200  1.0000
  P   P8        1.0  0.39900  0.60400  0.90100  1.0000
