data_image0
_chemical_formula_structural       B4Ce2Ru4
_chemical_formula_sum              "B4 Ce2 Ru4"
_cell_length_a       5.65939
_cell_length_b       5.65939
_cell_length_c       6.02296
_cell_angle_alpha    108.212
_cell_angle_beta     108.212
_cell_angle_gamma    109.56

_space_group_name_H-M_alt    "P 1"
_space_group_IT_number       1

loop_
  _space_group_symop_operation_xyz
  'x, y, z'

loop_
  _atom_site_type_symbol
  _atom_site_label
  _atom_site_symmetry_multiplicity
  _atom_site_fract_x
  _atom_site_fract_y
  _atom_site_fract_z
  _atom_site_occupancy
  B   B1        1.0  0.80500  0.19500  0.25000  1.0000
  B   B2        1.0  0.44500  0.55500  0.25000  1.0000
  B   B3        1.0  0.55500  0.44500  0.75000  1.0000
  B   B4        1.0  0.19500  0.80500  0.75000  1.0000
  Ce  Ce1       1.0  0.12500  0.87500  0.25000  1.0000
  Ce  Ce2       1.0  0.87500  0.12500  0.75000  1.0000
  Ru  Ru1       1.0  0.51100  0.76100  0.02260  1.0000
  Ru  Ru2       1.0  0.23900  0.48900  0.47700  1.0000
  Ru  Ru3       1.0  0.76100  0.51100  0.52300  1.0000
  Ru  Ru4       1.0  0.48900  0.23900  0.97700  1.0000
