data_image0
_chemical_formula_structural       Ni2Si6Y2
_chemical_formula_sum              "Ni2 Si6 Y2"
_cell_length_a       3.93481
_cell_length_b       3.96192
_cell_length_c       10.6927
_cell_angle_alpha    90
_cell_angle_beta     79.3974
_cell_angle_gamma    90

_space_group_name_H-M_alt    "P 1"
_space_group_IT_number       1

loop_
  _space_group_symop_operation_xyz
  'x, y, z'

loop_
  _atom_site_type_symbol
  _atom_site_label
  _atom_site_symmetry_multiplicity
  _atom_site_fract_x
  _atom_site_fract_y
  _atom_site_fract_z
  _atom_site_occupancy
  Ni  Ni1       1.0  0.39200  0.50000  0.21700  1.0000
  Ni  Ni2       1.0  0.61200  0.50000  0.77700  1.0000
  Si  Si1       1.0  0.44600  0.00000  0.10800  1.0000
  Si  Si2       1.0  0.94600  0.50000  0.10900  1.0000
  Si  Si3       1.0  0.28400  0.50000  0.43200  1.0000
  Si  Si4       1.0  0.71900  0.50000  0.56100  1.0000
  Si  Si5       1.0  0.55800  0.00000  0.88400  1.0000
  Si  Si6       1.0  0.05770  0.50000  0.88500  1.0000
  Y   Y1        1.0  0.83300  0.00000  0.33500  1.0000
  Y   Y2        1.0  0.17100  0.00000  0.65800  1.0000
