data_image0
_chemical_formula_structural       B4Eu2Ir4
_chemical_formula_sum              "B4 Eu2 Ir4"
_cell_length_a       5.55832
_cell_length_b       5.55832
_cell_length_c       6.14793
_cell_angle_alpha    105.367
_cell_angle_beta     105.367
_cell_angle_gamma    114.443

_space_group_name_H-M_alt    "P 1"
_space_group_IT_number       1

loop_
  _space_group_symop_operation_xyz
  'x, y, z'

loop_
  _atom_site_type_symbol
  _atom_site_label
  _atom_site_symmetry_multiplicity
  _atom_site_fract_x
  _atom_site_fract_y
  _atom_site_fract_z
  _atom_site_occupancy
  B   B1        1.0  0.55100  0.44900  0.25000  1.0000
  B   B2        1.0  0.19900  0.80100  0.25000  1.0000
  B   B3        1.0  0.80100  0.19900  0.75000  1.0000
  B   B4        1.0  0.44900  0.55100  0.75000  1.0000
  Eu  Eu1       1.0  0.87500  0.12500  0.25000  1.0000
  Eu  Eu2       1.0  0.12500  0.87500  0.75000  1.0000
  Ir  Ir1       1.0  0.75600  0.50600  0.01190  1.0000
  Ir  Ir2       1.0  0.49400  0.24400  0.48800  1.0000
  Ir  Ir3       1.0  0.50600  0.75600  0.51200  1.0000
  Ir  Ir4       1.0  0.24400  0.49400  0.98800  1.0000
