data_image0
_chemical_formula_structural       Cl8Nb2
_chemical_formula_sum              "Cl8 Nb2"
_cell_length_a       6.85323
_cell_length_b       6.92976
_cell_length_c       7.10259
_cell_angle_alpha    108.275
_cell_angle_beta     61.1548
_cell_angle_gamma    119.635

_space_group_name_H-M_alt    "P 1"
_space_group_IT_number       1

loop_
  _space_group_symop_operation_xyz
  'x, y, z'

loop_
  _atom_site_type_symbol
  _atom_site_label
  _atom_site_symmetry_multiplicity
  _atom_site_fract_x
  _atom_site_fract_y
  _atom_site_fract_z
  _atom_site_occupancy
  Cl  Cl1       1.0  0.31600  0.79100  0.15800  1.0000
  Cl  Cl2       1.0  0.78900  0.76100  0.18300  1.0000
  Cl  Cl3       1.0  0.21900  0.25600  0.30300  1.0000
  Cl  Cl4       1.0  0.73400  0.25600  0.30300  1.0000
  Cl  Cl5       1.0  0.26600  0.74400  0.69700  1.0000
  Cl  Cl6       1.0  0.78100  0.74400  0.69700  1.0000
  Cl  Cl7       1.0  0.21100  0.23900  0.81700  1.0000
  Cl  Cl8       1.0  0.68400  0.20900  0.84200  1.0000
  Nb  Nb1       1.0  0.22000  0.00000  0.00000  1.0000
  Nb  Nb2       1.0  0.78000  0.00000  0.00000  1.0000
