data_image0
_chemical_formula_structural       B2Be8
_chemical_formula_sum              "B2 Be8"
_cell_length_a       3.34687
_cell_length_b       3.34687
_cell_length_c       7.00737
_cell_angle_alpha    90
_cell_angle_beta     90
_cell_angle_gamma    90

_space_group_name_H-M_alt    "P 1"
_space_group_IT_number       1

loop_
  _space_group_symop_operation_xyz
  'x, y, z'

loop_
  _atom_site_type_symbol
  _atom_site_label
  _atom_site_symmetry_multiplicity
  _atom_site_fract_x
  _atom_site_fract_y
  _atom_site_fract_z
  _atom_site_occupancy
  B   B1        1.0  0.00000  0.50000  0.16900  1.0000
  B   B2        1.0  0.50000  0.00000  0.83100  1.0000
  Be  Be1       1.0  0.00000  0.00000  0.00000  1.0000
  Be  Be2       1.0  0.50000  0.50000  0.00000  1.0000
  Be  Be3       1.0  0.00000  0.00000  0.30400  1.0000
  Be  Be4       1.0  0.50000  0.50000  0.30400  1.0000
  Be  Be5       1.0  0.00000  0.50000  0.48100  1.0000
  Be  Be6       1.0  0.50000  0.00000  0.51900  1.0000
  Be  Be7       1.0  0.00000  0.00000  0.69600  1.0000
  Be  Be8       1.0  0.50000  0.50000  0.69600  1.0000
