data_image0
_chemical_formula_structural       Ce2Cr2O2S4
_chemical_formula_sum              "Ce2 Cr2 O2 S4"
_cell_length_a       3.75772
_cell_length_b       6.13165
_cell_length_c       8.03003
_cell_angle_alpha    90.1035
_cell_angle_beta     90
_cell_angle_gamma    107.844

_space_group_name_H-M_alt    "P 1"
_space_group_IT_number       1

loop_
  _space_group_symop_operation_xyz
  'x, y, z'

loop_
  _atom_site_type_symbol
  _atom_site_label
  _atom_site_symmetry_multiplicity
  _atom_site_fract_x
  _atom_site_fract_y
  _atom_site_fract_z
  _atom_site_occupancy
  Ce  Ce1       1.0  0.73400  0.46900  0.20800  1.0000
  Ce  Ce2       1.0  0.26600  0.53100  0.79200  1.0000
  Cr  Cr1       1.0  0.00000  0.00000  0.00000  1.0000
  Cr  Cr2       1.0  0.50000  0.00000  0.50000  1.0000
  O   O1        1.0  0.16600  0.33100  0.05980  1.0000
  O   O2        1.0  0.83400  0.66900  0.94000  1.0000
  S   S1        1.0  0.45700  0.91400  0.19800  1.0000
  S   S2        1.0  0.13500  0.27100  0.47100  1.0000
  S   S3        1.0  0.86500  0.72900  0.52900  1.0000
  S   S4        1.0  0.54300  0.08620  0.80200  1.0000
