data_image0
_chemical_formula_structural       K4P4Si2
_chemical_formula_sum              "K4 P4 Si2"
_cell_length_a       6.13313
_cell_length_b       6.88518
_cell_length_c       7.95675
_cell_angle_alpha    115.637
_cell_angle_beta     112.669
_cell_angle_gamma    90

_space_group_name_H-M_alt    "P 1"
_space_group_IT_number       1

loop_
  _space_group_symop_operation_xyz
  'x, y, z'

loop_
  _atom_site_type_symbol
  _atom_site_label
  _atom_site_symmetry_multiplicity
  _atom_site_fract_x
  _atom_site_fract_y
  _atom_site_fract_z
  _atom_site_occupancy
  K   K1        1.0  0.14700  0.30600  0.29400  1.0000
  K   K2        1.0  0.64700  0.98800  0.29400  1.0000
  K   K3        1.0  0.35300  0.01220  0.70600  1.0000
  K   K4        1.0  0.85300  0.69400  0.70600  1.0000
  P   P1        1.0  0.59600  0.43000  0.19300  1.0000
  P   P2        1.0  0.09640  0.76200  0.19300  1.0000
  P   P3        1.0  0.90400  0.23800  0.80700  1.0000
  P   P4        1.0  0.40400  0.57000  0.80700  1.0000
  Si  Si1       1.0  0.25000  0.50000  0.00000  1.0000
  Si  Si2       1.0  0.75000  0.50000  0.00000  1.0000
