data_image0
_chemical_formula_structural       N4O2Si4
_chemical_formula_sum              "N4 O2 Si4"
_cell_length_a       4.84664
_cell_length_b       5.22223
_cell_length_c       5.22223
_cell_angle_alpha    63.3025
_cell_angle_beta     90
_cell_angle_gamma    90

_space_group_name_H-M_alt    "P 1"
_space_group_IT_number       1

loop_
  _space_group_symop_operation_xyz
  'x, y, z'

loop_
  _atom_site_type_symbol
  _atom_site_label
  _atom_site_symmetry_multiplicity
  _atom_site_fract_x
  _atom_site_fract_y
  _atom_site_fract_z
  _atom_site_occupancy
  N   N1        1.0  0.13800  0.34000  0.08970  1.0000
  N   N2        1.0  0.63800  0.08970  0.34000  1.0000
  N   N3        1.0  0.13800  0.91000  0.66000  1.0000
  N   N4        1.0  0.63800  0.66000  0.91000  1.0000
  O   O1        1.0  0.23500  0.77800  0.22200  1.0000
  O   O2        1.0  0.73500  0.22200  0.77800  1.0000
  Si  Si1       1.0  0.79100  0.32900  0.02320  1.0000
  Si  Si2       1.0  0.29100  0.02320  0.32900  1.0000
  Si  Si3       1.0  0.79100  0.97700  0.67100  1.0000
  Si  Si4       1.0  0.29100  0.67100  0.97700  1.0000
