data_image0
_chemical_formula_structural       Cl6Y4
_chemical_formula_sum              "Cl6 Y4"
_cell_length_a       3.8403
_cell_length_b       7.8914
_cell_length_c       9.56025
_cell_angle_alpha    103.802
_cell_angle_beta     101.586
_cell_angle_gamma    104.083

_space_group_name_H-M_alt    "P 1"
_space_group_IT_number       1

loop_
  _space_group_symop_operation_xyz
  'x, y, z'

loop_
  _atom_site_type_symbol
  _atom_site_label
  _atom_site_symmetry_multiplicity
  _atom_site_fract_x
  _atom_site_fract_y
  _atom_site_fract_z
  _atom_site_occupancy
  Cl  Cl1       1.0  0.89000  0.66300  0.11800  1.0000
  Cl  Cl2       1.0  0.31400  0.36100  0.26700  1.0000
  Cl  Cl3       1.0  0.15000  0.80900  0.49100  1.0000
  Cl  Cl4       1.0  0.85000  0.19100  0.50900  1.0000
  Cl  Cl5       1.0  0.68600  0.63900  0.73300  1.0000
  Cl  Cl6       1.0  0.11000  0.33700  0.88200  1.0000
  Y   Y1        1.0  0.63800  0.22600  0.05090  1.0000
  Y   Y2        1.0  0.15500  0.01820  0.29200  1.0000
  Y   Y3        1.0  0.84500  0.98200  0.70800  1.0000
  Y   Y4        1.0  0.36200  0.77400  0.94900  1.0000
