data_image0
_chemical_formula_structural       Cl4Nb2Se4
_chemical_formula_sum              "Cl4 Nb2 Se4"
_cell_length_a       6.4102
_cell_length_b       6.58672
_cell_length_c       7.41581
_cell_angle_alpha    67.0207
_cell_angle_beta     111.404
_cell_angle_gamma    119.124

_space_group_name_H-M_alt    "P 1"
_space_group_IT_number       1

loop_
  _space_group_symop_operation_xyz
  'x, y, z'

loop_
  _atom_site_type_symbol
  _atom_site_label
  _atom_site_symmetry_multiplicity
  _atom_site_fract_x
  _atom_site_fract_y
  _atom_site_fract_z
  _atom_site_occupancy
  Cl  Cl1       1.0  0.15700  0.51300  0.21400  1.0000
  Cl  Cl2       1.0  0.57400  0.35300  0.21500  1.0000
  Cl  Cl3       1.0  0.42600  0.64700  0.78500  1.0000
  Cl  Cl4       1.0  0.84300  0.48700  0.78600  1.0000
  Nb  Nb1       1.0  0.87100  0.74100  1.00000  1.0000
  Nb  Nb2       1.0  0.12900  0.25900  0.00027  1.0000
  Se  Se1       1.0  0.73200  0.95500  0.14200  1.0000
  Se  Se2       1.0  0.08380  0.89600  0.32900  1.0000
  Se  Se3       1.0  0.91600  0.10400  0.67100  1.0000
  Se  Se4       1.0  0.26800  0.04540  0.85800  1.0000
