data_image0
_chemical_formula_structural       B4Ho2Ni4
_chemical_formula_sum              "B4 Ho2 Ni4"
_cell_length_a       4.94858
_cell_length_b       4.94858
_cell_length_c       6.11003
_cell_angle_alpha    102.514
_cell_angle_beta     103.372
_cell_angle_gamma    116.546

_space_group_name_H-M_alt    "P 1"
_space_group_IT_number       1

loop_
  _space_group_symop_operation_xyz
  'x, y, z'

loop_
  _atom_site_type_symbol
  _atom_site_label
  _atom_site_symmetry_multiplicity
  _atom_site_fract_x
  _atom_site_fract_y
  _atom_site_fract_z
  _atom_site_occupancy
  B   B1        1.0  0.17700  0.49700  0.02200  1.0000
  B   B2        1.0  0.97500  0.15500  0.47800  1.0000
  B   B3        1.0  0.02500  0.84500  0.52200  1.0000
  B   B4        1.0  0.82300  0.50300  0.97800  1.0000
  Ho  Ho1       1.0  0.37000  0.12000  0.25000  1.0000
  Ho  Ho2       1.0  0.63000  0.88000  0.75000  1.0000
  Ni  Ni1       1.0  0.66500  0.72200  0.20000  1.0000
  Ni  Ni2       1.0  0.02200  0.46600  0.30000  1.0000
  Ni  Ni3       1.0  0.97800  0.53400  0.70000  1.0000
  Ni  Ni4       1.0  0.33500  0.27800  0.80000  1.0000
