data_image0
_chemical_formula_structural       K2P2S6
_chemical_formula_sum              "K2 P2 S6"
_cell_length_a       6.89846
_cell_length_b       7.11268
_cell_length_c       7.11268
_cell_angle_alpha    99.3507
_cell_angle_beta     60.9914
_cell_angle_gamma    119.009

_space_group_name_H-M_alt    "P 1"
_space_group_IT_number       1

loop_
  _space_group_symop_operation_xyz
  'x, y, z'

loop_
  _atom_site_type_symbol
  _atom_site_label
  _atom_site_symmetry_multiplicity
  _atom_site_fract_x
  _atom_site_fract_y
  _atom_site_fract_z
  _atom_site_occupancy
  K   K1        1.0  0.74400  0.74400  0.25600  1.0000
  K   K2        1.0  0.25600  0.25600  0.74400  1.0000
  P   P1        1.0  0.00000  0.33900  0.33900  1.0000
  P   P2        1.0  1.00000  0.66100  0.66100  1.0000
  S   S1        1.0  0.24600  0.22900  0.22900  1.0000
  S   S2        1.0  0.75400  0.22900  0.22900  1.0000
  S   S3        1.0  0.18800  0.68800  0.31200  1.0000
  S   S4        1.0  0.81200  0.31200  0.68800  1.0000
  S   S5        1.0  0.24600  0.77100  0.77100  1.0000
  S   S6        1.0  0.75400  0.77100  0.77100  1.0000
