data_image0
_chemical_formula_structural       B2O6SnSr
_chemical_formula_sum              "B2 O6 Sn1 Sr1"
_cell_length_a       4.95558
_cell_length_b       4.95558
_cell_length_c       6.25278
_cell_angle_alpha    113.345
_cell_angle_beta     66.6548
_cell_angle_gamma    120

_space_group_name_H-M_alt    "P 1"
_space_group_IT_number       1

loop_
  _space_group_symop_operation_xyz
  'x, y, z'

loop_
  _atom_site_type_symbol
  _atom_site_label
  _atom_site_symmetry_multiplicity
  _atom_site_fract_x
  _atom_site_fract_y
  _atom_site_fract_z
  _atom_site_occupancy
  B   B1        1.0  0.23600  0.76400  0.29300  1.0000
  B   B2        1.0  0.76400  0.23600  0.70700  1.0000
  O   O1        1.0  0.28100  0.05720  0.28200  1.0000
  O   O2        1.0  0.94300  0.50600  0.28200  1.0000
  O   O3        1.0  0.49400  0.71900  0.28200  1.0000
  O   O4        1.0  0.50600  0.28100  0.71800  1.0000
  O   O5        1.0  0.05720  0.49400  0.71800  1.0000
  O   O6        1.0  0.71900  0.94300  0.71800  1.0000
  Sn  Sn1       1.0  0.50000  0.50000  0.50000  1.0000
  Sr  Sr1       1.0  0.00000  0.00000  0.00000  1.0000
