data_image0
_chemical_formula_structural       Ni3O6Te
_chemical_formula_sum              "Ni3 O6 Te1"
_cell_length_a       5.09881
_cell_length_b       5.09881
_cell_length_c       5.44001
_cell_angle_alpha    62.054
_cell_angle_beta     117.946
_cell_angle_gamma    120

_space_group_name_H-M_alt    "P 1"
_space_group_IT_number       1

loop_
  _space_group_symop_operation_xyz
  'x, y, z'

loop_
  _atom_site_type_symbol
  _atom_site_label
  _atom_site_symmetry_multiplicity
  _atom_site_fract_x
  _atom_site_fract_y
  _atom_site_fract_z
  _atom_site_occupancy
  Ni  Ni1       1.0  0.35400  0.64600  0.06070  1.0000
  Ni  Ni2       1.0  0.15000  0.85000  0.45000  1.0000
  Ni  Ni3       1.0  0.64500  0.35500  0.93400  1.0000
  O   O1        1.0  0.05130  0.25000  0.25900  1.0000
  O   O2        1.0  0.45800  0.94900  0.25900  1.0000
  O   O3        1.0  0.75000  0.54200  0.25900  1.0000
  O   O4        1.0  0.22900  0.42800  0.74700  1.0000
  O   O5        1.0  0.57200  0.05350  0.74700  1.0000
  O   O6        1.0  0.94700  0.77100  0.74700  1.0000
  Te  Te1       1.0  0.84500  0.15500  0.53600  1.0000
