data_image0
_chemical_formula_structural       Cr4S6
_chemical_formula_sum              "Cr4 S6"
_cell_length_a       6.00583
_cell_length_b       6.00582
_cell_length_c       6.37179
_cell_angle_alpha    118.118
_cell_angle_beta     118.118
_cell_angle_gamma    60

_space_group_name_H-M_alt    "P 1"
_space_group_IT_number       1

loop_
  _space_group_symop_operation_xyz
  'x, y, z'

loop_
  _atom_site_type_symbol
  _atom_site_label
  _atom_site_symmetry_multiplicity
  _atom_site_fract_x
  _atom_site_fract_y
  _atom_site_fract_z
  _atom_site_occupancy
  Cr  Cr1       1.0  0.00000  0.00000  0.00000  1.0000
  Cr  Cr2       1.0  0.67100  0.67100  0.01250  1.0000
  Cr  Cr3       1.0  0.50000  0.50000  0.50000  1.0000
  Cr  Cr4       1.0  0.32900  0.32900  0.98700  1.0000
  S   S1        1.0  0.40800  0.74100  0.24300  1.0000
  S   S2        1.0  0.74100  0.09380  0.24300  1.0000
  S   S3        1.0  0.09380  0.40800  0.24300  1.0000
  S   S4        1.0  0.90600  0.59200  0.75700  1.0000
  S   S5        1.0  0.25900  0.90600  0.75700  1.0000
  S   S6        1.0  0.59200  0.25900  0.75700  1.0000
