data_image0
_chemical_formula_structural       Sb4V6
_chemical_formula_sum              "Sb4 V6"
_cell_length_a       5.49927
_cell_length_b       5.49927
_cell_length_c       7.50763
_cell_angle_alpha    68.5157
_cell_angle_beta     111.484
_cell_angle_gamma    120

_space_group_name_H-M_alt    "P 1"
_space_group_IT_number       1

loop_
  _space_group_symop_operation_xyz
  'x, y, z'

loop_
  _atom_site_type_symbol
  _atom_site_label
  _atom_site_symmetry_multiplicity
  _atom_site_fract_x
  _atom_site_fract_y
  _atom_site_fract_z
  _atom_site_occupancy
  Sb  Sb1       1.0  0.66900  0.33100  0.00823  1.0000
  Sb  Sb2       1.0  0.11000  0.89000  0.33000  1.0000
  Sb  Sb3       1.0  0.89000  0.11000  0.67000  1.0000
  Sb  Sb4       1.0  0.33100  0.66900  0.99200  1.0000
  V   V1        1.0  0.60000  0.86800  0.33200  1.0000
  V   V2        1.0  0.13200  0.40000  0.33200  1.0000
  V   V3        1.0  0.60000  0.40000  0.33200  1.0000
  V   V4        1.0  0.40000  0.60000  0.66800  1.0000
  V   V5        1.0  0.86800  0.60000  0.66800  1.0000
  V   V6        1.0  0.40000  0.13200  0.66800  1.0000
