data_image0
_chemical_formula_structural       CuO6Sr2Te
_chemical_formula_sum              "Cu1 O6 Sr2 Te1"
_cell_length_a       5.42825
_cell_length_b       5.42825
_cell_length_c       5.717
_cell_angle_alpha    118.343
_cell_angle_beta     118.343
_cell_angle_gamma    90

_space_group_name_H-M_alt    "P 1"
_space_group_IT_number       1

loop_
  _space_group_symop_operation_xyz
  'x, y, z'

loop_
  _atom_site_type_symbol
  _atom_site_label
  _atom_site_symmetry_multiplicity
  _atom_site_fract_x
  _atom_site_fract_y
  _atom_site_fract_z
  _atom_site_occupancy
  Cu  Cu1       1.0  0.00000  0.00000  0.00000  1.0000
  O   O1        1.0  0.29900  0.20200  0.00000  1.0000
  O   O2        1.0  0.79800  0.29900  0.00000  1.0000
  O   O3        1.0  0.20200  0.70100  0.00000  1.0000
  O   O4        1.0  0.70100  0.79800  0.00000  1.0000
  O   O5        1.0  0.72800  0.72800  0.45600  1.0000
  O   O6        1.0  0.27200  0.27200  0.54400  1.0000
  Sr  Sr1       1.0  0.75000  0.25000  0.50000  1.0000
  Sr  Sr2       1.0  0.25000  0.75000  0.50000  1.0000
  Te  Te1       1.0  0.50000  0.50000  0.00000  1.0000
