data_image0
_chemical_formula_structural       Dy3Ga3Mn3
_chemical_formula_sum              "Dy3 Ga3 Mn3"
_cell_length_a       7.10376
_cell_length_b       7.10373
_cell_length_c       4.11195
_cell_angle_alpha    90
_cell_angle_beta     90
_cell_angle_gamma    119.981

_space_group_name_H-M_alt    "P 1"
_space_group_IT_number       1

loop_
  _space_group_symop_operation_xyz
  'x, y, z'

loop_
  _atom_site_type_symbol
  _atom_site_label
  _atom_site_symmetry_multiplicity
  _atom_site_fract_x
  _atom_site_fract_y
  _atom_site_fract_z
  _atom_site_occupancy
  Dy  Dy1       1.0  0.41200  0.41200  0.50000  1.0000
  Dy  Dy2       1.0  0.00000  0.58800  0.50000  1.0000
  Dy  Dy3       1.0  0.58800  0.00000  0.50000  1.0000
  Ga  Ga1       1.0  0.66700  0.33300  0.00000  1.0000
  Ga  Ga2       1.0  0.33300  0.66700  0.00000  1.0000
  Ga  Ga3       1.0  0.00015  0.00015  0.50000  1.0000
  Mn  Mn1       1.0  0.23700  0.00003  0.00000  1.0000
  Mn  Mn2       1.0  0.00002  0.23700  0.00000  1.0000
  Mn  Mn3       1.0  0.76300  0.76300  0.00000  1.0000
