data_image0
_chemical_formula_structural       Cs2F6Ir
_chemical_formula_sum              "Cs2 F6 Ir1"
_cell_length_a       6.02505
_cell_length_b       6.02472
_cell_length_c       4.75599
_cell_angle_alpha    90.0075
_cell_angle_beta     89.9967
_cell_angle_gamma    120.001

_space_group_name_H-M_alt    "P 1"
_space_group_IT_number       1

loop_
  _space_group_symop_operation_xyz
  'x, y, z'

loop_
  _atom_site_type_symbol
  _atom_site_label
  _atom_site_symmetry_multiplicity
  _atom_site_fract_x
  _atom_site_fract_y
  _atom_site_fract_z
  _atom_site_occupancy
  Cs  Cs1       1.0  0.66700  0.33300  0.21000  1.0000
  Cs  Cs2       1.0  0.33300  0.66700  0.79000  1.0000
  F   F1        1.0  0.15700  0.84300  0.27300  1.0000
  F   F2        1.0  0.68500  0.84300  0.27300  1.0000
  F   F3        1.0  0.15700  0.31400  0.27300  1.0000
  F   F4        1.0  0.84300  0.68600  0.72700  1.0000
  F   F5        1.0  0.31500  0.15700  0.72700  1.0000
  F   F6        1.0  0.84300  0.15700  0.72700  1.0000
  Ir  Ir1       1.0  0.00000  0.00000  0.50000  1.0000
