data_image0
_chemical_formula_structural       Al2N2Zr6
_chemical_formula_sum              "Al2 N2 Zr6"
_cell_length_a       3.37617
_cell_length_b       6.00834
_cell_length_c       9.02647
_cell_angle_alpha    90
_cell_angle_beta     90
_cell_angle_gamma    73.6827

_space_group_name_H-M_alt    "P 1"
_space_group_IT_number       1

loop_
  _space_group_symop_operation_xyz
  'x, y, z'

loop_
  _atom_site_type_symbol
  _atom_site_label
  _atom_site_symmetry_multiplicity
  _atom_site_fract_x
  _atom_site_fract_y
  _atom_site_fract_z
  _atom_site_occupancy
  Al  Al1       1.0  0.74700  0.50500  0.25000  1.0000
  Al  Al2       1.0  0.25300  0.49500  0.75000  1.0000
  N   N1        1.0  0.00000  0.00000  0.00000  1.0000
  N   N2        1.0  0.00000  0.00000  0.50000  1.0000
  Zr  Zr1       1.0  0.37300  0.25500  0.04220  1.0000
  Zr  Zr2       1.0  0.04460  0.91100  0.25000  1.0000
  Zr  Zr3       1.0  0.37300  0.25500  0.45800  1.0000
  Zr  Zr4       1.0  0.62700  0.74500  0.54200  1.0000
  Zr  Zr5       1.0  0.95500  0.08920  0.75000  1.0000
  Zr  Zr6       1.0  0.62700  0.74500  0.95800  1.0000
