data_image0
_chemical_formula_structural       F6PdZr
_chemical_formula_sum              "F6 Pd1 Zr1"
_cell_length_a       5.06283
_cell_length_b       5.06283
_cell_length_c       5.53514
_cell_angle_alpha    117.215
_cell_angle_beta     90
_cell_angle_gamma    120

_space_group_name_H-M_alt    "P 1"
_space_group_IT_number       1

loop_
  _space_group_symop_operation_xyz
  'x, y, z'

loop_
  _atom_site_type_symbol
  _atom_site_label
  _atom_site_symmetry_multiplicity
  _atom_site_fract_x
  _atom_site_fract_y
  _atom_site_fract_z
  _atom_site_occupancy
  F   F1        1.0  0.07790  0.81500  0.25600  1.0000
  F   F2        1.0  0.44100  0.51900  0.25600  1.0000
  F   F3        1.0  0.73700  0.17800  0.25600  1.0000
  F   F4        1.0  0.26300  0.82200  0.74400  1.0000
  F   F5        1.0  0.55900  0.48100  0.74400  1.0000
  F   F6        1.0  0.92200  0.18500  0.74400  1.0000
  Pd  Pd1       1.0  0.00000  0.00000  0.00000  1.0000
  Zr  Zr1       1.0  0.50000  0.00000  0.50000  1.0000
