data_image0
_chemical_formula_structural       Fe2O4Tl2
_chemical_formula_sum              "Fe2 O4 Tl2"
_cell_length_a       5.97956
_cell_length_b       5.9802
_cell_length_c       6.02613
_cell_angle_alpha    119.745
_cell_angle_beta     60.2524
_cell_angle_gamma    119.998

_space_group_name_H-M_alt    "P 1"
_space_group_IT_number       1

loop_
  _space_group_symop_operation_xyz
  'x, y, z'

loop_
  _atom_site_type_symbol
  _atom_site_label
  _atom_site_symmetry_multiplicity
  _atom_site_fract_x
  _atom_site_fract_y
  _atom_site_fract_z
  _atom_site_occupancy
  Fe  Fe1       1.0  0.62400  0.37600  0.12800  1.0000
  Fe  Fe2       1.0  0.37600  0.62400  0.87300  1.0000
  O   O1        1.0  0.50000  0.50000  0.00000  1.0000
  O   O2        1.0  0.50000  0.50000  0.50000  1.0000
  O   O3        1.0  0.00011  0.50000  0.00000  1.0000
  O   O4        1.0  0.50000  0.00000  0.00000  1.0000
  Tl  Tl1       1.0  0.87700  0.12300  0.36900  1.0000
  Tl  Tl2       1.0  0.12300  0.87700  0.63100  1.0000
