data_image0
_chemical_formula_structural       Na4Pt2Se4
_chemical_formula_sum              "Na4 Pt2 Se4"
_cell_length_a       3.72612
_cell_length_b       5.70073
_cell_length_c       11.2964
_cell_angle_alpha    90
_cell_angle_beta     90
_cell_angle_gamma    70.9247

_space_group_name_H-M_alt    "P 1"
_space_group_IT_number       1

loop_
  _space_group_symop_operation_xyz
  'x, y, z'

loop_
  _atom_site_type_symbol
  _atom_site_label
  _atom_site_symmetry_multiplicity
  _atom_site_fract_x
  _atom_site_fract_y
  _atom_site_fract_z
  _atom_site_occupancy
  Na  Na1       1.0  0.82400  0.35100  0.09820  1.0000
  Na  Na2       1.0  0.43700  0.12600  0.37000  1.0000
  Na  Na3       1.0  0.17600  0.64900  0.59800  1.0000
  Na  Na4       1.0  0.56300  0.87400  0.87000  1.0000
  Pt  Pt1       1.0  0.13600  0.72800  0.25100  1.0000
  Pt  Pt2       1.0  0.86400  0.27200  0.75100  1.0000
  Se  Se1       1.0  0.55000  0.89900  0.13000  1.0000
  Se  Se2       1.0  0.72200  0.55700  0.37300  1.0000
  Se  Se3       1.0  0.45000  0.10100  0.63000  1.0000
  Se  Se4       1.0  0.27800  0.44300  0.87300  1.0000
