data_image0
_chemical_formula_structural       Br4Nb2O2
_chemical_formula_sum              "Br4 Nb2 O2"
_cell_length_a       3.94252
_cell_length_b       7.05087
_cell_length_c       7.30927
_cell_angle_alpha    104.362
_cell_angle_beta     105.646
_cell_angle_gamma    90

_space_group_name_H-M_alt    "P 1"
_space_group_IT_number       1

loop_
  _space_group_symop_operation_xyz
  'x, y, z'

loop_
  _atom_site_type_symbol
  _atom_site_label
  _atom_site_symmetry_multiplicity
  _atom_site_fract_x
  _atom_site_fract_y
  _atom_site_fract_z
  _atom_site_occupancy
  Br  Br1       1.0  0.18500  0.06730  0.26400  1.0000
  Br  Br2       1.0  0.20300  0.58000  0.30900  1.0000
  Br  Br3       1.0  0.89400  0.42000  0.69100  1.0000
  Br  Br4       1.0  0.92100  0.93300  0.73600  1.0000
  Nb  Nb1       1.0  0.00503  0.28400  0.00032  1.0000
  Nb  Nb2       1.0  0.00470  0.71600  0.00000  1.0000
  O   O1        1.0  0.54000  0.72400  0.00009  1.0000
  O   O2        1.0  0.54000  0.27600  0.00000  1.0000
