data_image0
_chemical_formula_structural       Nb4Se6
_chemical_formula_sum              "Nb4 Se6"
_cell_length_a       6.61695
_cell_length_b       3.43626
_cell_length_c       9.27813
_cell_angle_alpha    90
_cell_angle_beta     103.797
_cell_angle_gamma    90

_space_group_name_H-M_alt    "P 1"
_space_group_IT_number       1

loop_
  _space_group_symop_operation_xyz
  'x, y, z'

loop_
  _atom_site_type_symbol
  _atom_site_label
  _atom_site_symmetry_multiplicity
  _atom_site_fract_x
  _atom_site_fract_y
  _atom_site_fract_z
  _atom_site_occupancy
  Nb  Nb1       1.0  0.31700  0.25000  0.00218  1.0000
  Nb  Nb2       1.0  0.88700  0.75000  0.36500  1.0000
  Nb  Nb3       1.0  0.11300  0.25000  0.63500  1.0000
  Nb  Nb4       1.0  0.68300  0.75000  0.99800  1.0000
  Se  Se1       1.0  0.97500  0.25000  0.15700  1.0000
  Se  Se2       1.0  0.47900  0.75000  0.20400  1.0000
  Se  Se3       1.0  0.27300  0.75000  0.48600  1.0000
  Se  Se4       1.0  0.72700  0.25000  0.51400  1.0000
  Se  Se5       1.0  0.52100  0.25000  0.79600  1.0000
  Se  Se6       1.0  0.02530  0.75000  0.84300  1.0000
