data_image0
_chemical_formula_structural       F6K2U
_chemical_formula_sum              "F6 K2 U1"
_cell_length_a       6.3865
_cell_length_b       6.38644
_cell_length_c       3.63481
_cell_angle_alpha    90
_cell_angle_beta     90
_cell_angle_gamma    120.03

_space_group_name_H-M_alt    "P 1"
_space_group_IT_number       1

loop_
  _space_group_symop_operation_xyz
  'x, y, z'

loop_
  _atom_site_type_symbol
  _atom_site_label
  _atom_site_symmetry_multiplicity
  _atom_site_fract_x
  _atom_site_fract_y
  _atom_site_fract_z
  _atom_site_occupancy
  F   F1        1.0  0.64500  0.00006  0.00000  1.0000
  F   F2        1.0  0.35500  0.35500  0.00000  1.0000
  F   F3        1.0  0.00006  0.64500  0.00000  1.0000
  F   F4        1.0  0.23300  0.00011  0.50000  1.0000
  F   F5        1.0  0.00011  0.23300  0.50000  1.0000
  F   F6        1.0  0.76700  0.76700  0.50000  1.0000
  K   K1        1.0  0.66700  0.33300  0.50000  1.0000
  K   K2        1.0  0.33300  0.66700  0.50000  1.0000
  U   U1        1.0  0.00000  0.00000  0.00000  1.0000
