data_image0
_chemical_formula_structural       Eu3F4S2
_chemical_formula_sum              "Eu3 F4 S2"
_cell_length_a       3.87565
_cell_length_b       3.87565
_cell_length_c       10.0718
_cell_angle_alpha    101.093
_cell_angle_beta     101.093
_cell_angle_gamma    90

_space_group_name_H-M_alt    "P 1"
_space_group_IT_number       1

loop_
  _space_group_symop_operation_xyz
  'x, y, z'

loop_
  _atom_site_type_symbol
  _atom_site_label
  _atom_site_symmetry_multiplicity
  _atom_site_fract_x
  _atom_site_fract_y
  _atom_site_fract_z
  _atom_site_occupancy
  Eu  Eu1       1.0  0.00000  0.00000  0.00000  1.0000
  Eu  Eu2       1.0  0.64000  0.64000  0.28000  1.0000
  Eu  Eu3       1.0  0.36000  0.36000  0.72000  1.0000
  F   F1        1.0  0.57100  0.07080  0.14200  1.0000
  F   F2        1.0  0.07080  0.57100  0.14200  1.0000
  F   F3        1.0  0.92900  0.42900  0.85800  1.0000
  F   F4        1.0  0.42900  0.92900  0.85800  1.0000
  S   S1        1.0  0.21600  0.21600  0.43100  1.0000
  S   S2        1.0  0.78400  0.78400  0.56900  1.0000
