data_image0
_chemical_formula_structural       Br8Pa2
_chemical_formula_sum              "Br8 Pa2"
_cell_length_a       7.49912
_cell_length_b       7.49912
_cell_length_c       7.49912
_cell_angle_alpha    114.285
_cell_angle_beta     107.119
_cell_angle_gamma    107.119

_space_group_name_H-M_alt    "P 1"
_space_group_IT_number       1

loop_
  _space_group_symop_operation_xyz
  'x, y, z'

loop_
  _atom_site_type_symbol
  _atom_site_label
  _atom_site_symmetry_multiplicity
  _atom_site_fract_x
  _atom_site_fract_y
  _atom_site_fract_z
  _atom_site_occupancy
  Br  Br1       1.0  0.56200  0.26000  0.19800  1.0000
  Br  Br2       1.0  0.93800  0.63600  0.19800  1.0000
  Br  Br3       1.0  0.06200  0.19800  0.26000  1.0000
  Br  Br4       1.0  0.56200  0.80200  0.36400  1.0000
  Br  Br5       1.0  0.43800  0.19800  0.63600  1.0000
  Br  Br6       1.0  0.93800  0.80200  0.74000  1.0000
  Br  Br7       1.0  0.06200  0.36400  0.80200  1.0000
  Br  Br8       1.0  0.43800  0.74000  0.80200  1.0000
  Pa  Pa1       1.0  0.25000  0.87500  0.12500  1.0000
  Pa  Pa2       1.0  0.75000  0.12500  0.87500  1.0000
