data_image0
_chemical_formula_structural       P8V2
_chemical_formula_sum              "P8 V2"
_cell_length_a       5.25396
_cell_length_b       5.83249
_cell_length_c       6.0913
_cell_angle_alpha    98.6781
_cell_angle_beta     64.4519
_cell_angle_gamma    110.479

_space_group_name_H-M_alt    "P 1"
_space_group_IT_number       1

loop_
  _space_group_symop_operation_xyz
  'x, y, z'

loop_
  _atom_site_type_symbol
  _atom_site_label
  _atom_site_symmetry_multiplicity
  _atom_site_fract_x
  _atom_site_fract_y
  _atom_site_fract_z
  _atom_site_occupancy
  P   P1        1.0  0.18500  0.17700  0.17900  1.0000
  P   P2        1.0  0.63600  0.32300  0.17900  1.0000
  P   P3        1.0  0.05200  0.69000  0.44400  1.0000
  P   P4        1.0  0.50400  0.81000  0.44400  1.0000
  P   P5        1.0  0.49600  0.19000  0.55600  1.0000
  P   P6        1.0  0.94800  0.31000  0.55600  1.0000
  P   P7        1.0  0.36400  0.67700  0.82100  1.0000
  P   P8        1.0  0.81500  0.82300  0.82100  1.0000
  V   V1        1.0  0.93800  0.75000  0.12400  1.0000
  V   V2        1.0  0.06220  0.25000  0.87600  1.0000
