data_image0
_chemical_formula_structural       As6W4
_chemical_formula_sum              "As6 W4"
_cell_length_a       3.30659
_cell_length_b       6.92821
_cell_length_c       8.21667
_cell_angle_alpha    95.5096
_cell_angle_beta     101.608
_cell_angle_gamma    103.806

_space_group_name_H-M_alt    "P 1"
_space_group_IT_number       1

loop_
  _space_group_symop_operation_xyz
  'x, y, z'

loop_
  _atom_site_type_symbol
  _atom_site_label
  _atom_site_symmetry_multiplicity
  _atom_site_fract_x
  _atom_site_fract_y
  _atom_site_fract_z
  _atom_site_occupancy
  As  As1       1.0  0.92300  0.79800  0.04700  1.0000
  As  As2       1.0  0.72900  0.14500  0.31300  1.0000
  As  As3       1.0  0.47500  0.58100  0.36900  1.0000
  As  As4       1.0  0.52500  0.41900  0.63100  1.0000
  As  As5       1.0  0.27100  0.85500  0.68700  1.0000
  As  As6       1.0  0.07740  0.20200  0.95300  1.0000
  W   W1        1.0  0.78100  0.43400  0.12800  1.0000
  W   W2        1.0  0.12500  0.87800  0.37300  1.0000
  W   W3        1.0  0.87500  0.12200  0.62700  1.0000
  W   W4        1.0  0.21900  0.56600  0.87200  1.0000
