data_image0
_chemical_formula_structural       Gd2Mn4
_chemical_formula_sum              "Gd2 Mn4"
_cell_length_a       5.39143
_cell_length_b       5.08886
_cell_length_c       5.07844
_cell_angle_alpha    115.958
_cell_angle_beta     89.9976
_cell_angle_gamma    121.985

_space_group_name_H-M_alt    "P 1"
_space_group_IT_number       1

loop_
  _space_group_symop_operation_xyz
  'x, y, z'

loop_
  _atom_site_type_symbol
  _atom_site_label
  _atom_site_symmetry_multiplicity
  _atom_site_fract_x
  _atom_site_fract_y
  _atom_site_fract_z
  _atom_site_occupancy
  Gd  Gd1       1.0  0.74800  0.49600  0.25100  1.0000
  Gd  Gd2       1.0  0.00195  0.00391  0.99900  1.0000
  Mn  Mn1       1.0  0.37500  0.75000  0.12500  1.0000
  Mn  Mn2       1.0  0.37500  0.75000  0.62500  1.0000
  Mn  Mn3       1.0  0.87500  0.25000  0.62500  1.0000
  Mn  Mn4       1.0  0.37500  0.25000  0.62500  1.0000
