data_image0
_chemical_formula_structural       Cu4O4Tl2
_chemical_formula_sum              "Cu4 O4 Tl2"
_cell_length_a       5.48871
_cell_length_b       6.05171
_cell_length_c       6.07296
_cell_angle_alpha    119.884
_cell_angle_beta     116.865
_cell_angle_gamma    90

_space_group_name_H-M_alt    "P 1"
_space_group_IT_number       1

loop_
  _space_group_symop_operation_xyz
  'x, y, z'

loop_
  _atom_site_type_symbol
  _atom_site_label
  _atom_site_symmetry_multiplicity
  _atom_site_fract_x
  _atom_site_fract_y
  _atom_site_fract_z
  _atom_site_occupancy
  Cu  Cu1       1.0  0.50000  0.00000  0.00000  1.0000
  Cu  Cu2       1.0  0.50000  0.50000  0.00000  1.0000
  Cu  Cu3       1.0  0.00000  0.50000  0.50000  1.0000
  Cu  Cu4       1.0  0.50000  0.50000  0.50000  1.0000
  O   O1        1.0  0.70200  0.23500  0.40500  1.0000
  O   O2        1.0  0.70200  0.66900  0.40500  1.0000
  O   O3        1.0  0.29800  0.33100  0.59500  1.0000
  O   O4        1.0  0.29800  0.76500  0.59500  1.0000
  Tl  Tl1       1.0  0.10300  0.85300  0.20700  1.0000
  Tl  Tl2       1.0  0.89700  0.14700  0.79300  1.0000
