data_image0
_chemical_formula_structural       Ge4N4O2
_chemical_formula_sum              "Ge4 N4 O2"
_cell_length_a       5.10642
_cell_length_b       5.46825
_cell_length_c       5.46825
_cell_angle_alpha    63.314
_cell_angle_beta     90
_cell_angle_gamma    90

_space_group_name_H-M_alt    "P 1"
_space_group_IT_number       1

loop_
  _space_group_symop_operation_xyz
  'x, y, z'

loop_
  _atom_site_type_symbol
  _atom_site_label
  _atom_site_symmetry_multiplicity
  _atom_site_fract_x
  _atom_site_fract_y
  _atom_site_fract_z
  _atom_site_occupancy
  Ge  Ge1       1.0  0.81900  0.33100  0.01600  1.0000
  Ge  Ge2       1.0  0.31900  0.01600  0.33100  1.0000
  Ge  Ge3       1.0  0.81900  0.98400  0.66900  1.0000
  Ge  Ge4       1.0  0.31900  0.66900  0.98400  1.0000
  N   N1        1.0  0.17100  0.33400  0.07240  1.0000
  N   N2        1.0  0.67100  0.07240  0.33400  1.0000
  N   N3        1.0  0.17100  0.92800  0.66600  1.0000
  N   N4        1.0  0.67100  0.66600  0.92800  1.0000
  O   O1        1.0  0.22500  0.74600  0.25400  1.0000
  O   O2        1.0  0.72500  0.25400  0.74600  1.0000
