data_image0
_chemical_formula_structural       BaEu2NiO5
_chemical_formula_sum              "Ba1 Eu2 Ni1 O5"
_cell_length_a       3.79313
_cell_length_b       5.73649
_cell_length_c       6.53543
_cell_angle_alpha    116.032
_cell_angle_beta     106.87
_cell_angle_gamma    90

_space_group_name_H-M_alt    "P 1"
_space_group_IT_number       1

loop_
  _space_group_symop_operation_xyz
  'x, y, z'

loop_
  _atom_site_type_symbol
  _atom_site_label
  _atom_site_symmetry_multiplicity
  _atom_site_fract_x
  _atom_site_fract_y
  _atom_site_fract_z
  _atom_site_occupancy
  Ba  Ba1       1.0  0.00000  0.00000  0.00000  1.0000
  Eu  Eu1       1.0  0.20900  0.70900  0.41900  1.0000
  Eu  Eu2       1.0  0.79100  0.29100  0.58100  1.0000
  Ni  Ni1       1.0  0.50000  0.50000  0.00000  1.0000
  O   O1        1.0  0.00000  0.50000  0.00000  1.0000
  O   O2        1.0  0.62800  0.85800  0.25700  1.0000
  O   O3        1.0  0.62800  0.39800  0.25700  1.0000
  O   O4        1.0  0.37200  0.14200  0.74300  1.0000
  O   O5        1.0  0.37200  0.60200  0.74300  1.0000
