data_image0
_chemical_formula_structural       N2S3Sm4
_chemical_formula_sum              "N2 S3 Sm4"
_cell_length_a       3.92724
_cell_length_b       6.89877
_cell_length_c       8.13371
_cell_angle_alpha    92.4902
_cell_angle_beta     103.97
_cell_angle_gamma    73.4631

_space_group_name_H-M_alt    "P 1"
_space_group_IT_number       1

loop_
  _space_group_symop_operation_xyz
  'x, y, z'

loop_
  _atom_site_type_symbol
  _atom_site_label
  _atom_site_symmetry_multiplicity
  _atom_site_fract_x
  _atom_site_fract_y
  _atom_site_fract_z
  _atom_site_occupancy
  N   N1        1.0  0.71300  0.93400  0.35900  1.0000
  N   N2        1.0  0.28700  0.06590  0.64100  1.0000
  S   S1        1.0  0.00000  0.00000  0.00000  1.0000
  S   S2        1.0  0.38800  0.44300  0.21900  1.0000
  S   S3        1.0  0.61200  0.55700  0.78100  1.0000
  Sm  Sm1       1.0  0.70600  0.73000  0.14200  1.0000
  Sm  Sm2       1.0  0.10800  0.13800  0.35400  1.0000
  Sm  Sm3       1.0  0.89200  0.86200  0.64600  1.0000
  Sm  Sm4       1.0  0.29400  0.27000  0.85800  1.0000
