data_image0
_chemical_formula_structural       Cs2I5Li3
_chemical_formula_sum              "Cs2 I5 Li3"
_cell_length_a       4.72111
_cell_length_b       8.7321
_cell_length_c       10.7661
_cell_angle_alpha    66.9267
_cell_angle_beta     102.665
_cell_angle_gamma    105.684

_space_group_name_H-M_alt    "P 1"
_space_group_IT_number       1

loop_
  _space_group_symop_operation_xyz
  'x, y, z'

loop_
  _atom_site_type_symbol
  _atom_site_label
  _atom_site_symmetry_multiplicity
  _atom_site_fract_x
  _atom_site_fract_y
  _atom_site_fract_z
  _atom_site_occupancy
  Cs  Cs1       1.0  0.68400  0.14200  0.22600  1.0000
  Cs  Cs2       1.0  0.31600  0.85800  0.77400  1.0000
  I   I1        1.0  0.00000  0.00000  0.00000  1.0000
  I   I2        1.0  0.36000  0.52400  0.19700  1.0000
  I   I3        1.0  0.10000  0.76000  0.44000  1.0000
  I   I4        1.0  0.90000  0.24000  0.56000  1.0000
  I   I5        1.0  0.64000  0.47600  0.80300  1.0000
  Li  Li1       1.0  0.94800  0.68900  0.20800  1.0000
  Li  Li2       1.0  0.50000  0.50000  0.50000  1.0000
  Li  Li3       1.0  0.05180  0.31100  0.79200  1.0000
