data_image0
_chemical_formula_structural       Bi4O4S2
_chemical_formula_sum              "Bi4 O4 S2"
_cell_length_a       3.88025
_cell_length_b       11.9494
_cell_length_c       3.85098
_cell_angle_alpha    90
_cell_angle_beta     90
_cell_angle_gamma    90

_space_group_name_H-M_alt    "P 1"
_space_group_IT_number       1

loop_
  _space_group_symop_operation_xyz
  'x, y, z'

loop_
  _atom_site_type_symbol
  _atom_site_label
  _atom_site_symmetry_multiplicity
  _atom_site_fract_x
  _atom_site_fract_y
  _atom_site_fract_z
  _atom_site_occupancy
  Bi  Bi1       1.0  0.08010  0.35800  0.00000  1.0000
  Bi  Bi2       1.0  0.92000  0.64200  0.00000  1.0000
  Bi  Bi3       1.0  0.58000  0.14200  0.50000  1.0000
  Bi  Bi4       1.0  0.42000  0.85800  0.50000  1.0000
  O   O1        1.0  0.55800  0.25100  0.00000  1.0000
  O   O2        1.0  0.44200  0.74900  0.00000  1.0000
  O   O3        1.0  0.05810  0.24900  0.50000  1.0000
  O   O4        1.0  0.94200  0.75100  0.50000  1.0000
  S   S1        1.0  0.00000  0.00000  0.00000  1.0000
  S   S2        1.0  0.50000  0.50000  0.50000  1.0000
