data_image0
_chemical_formula_structural       B4Ce2Ir4
_chemical_formula_sum              "B4 Ce2 Ir4"
_cell_length_a       5.62897
_cell_length_b       5.62897
_cell_length_c       6.16863
_cell_angle_alpha    105.42
_cell_angle_beta     105.42
_cell_angle_gamma    114.66

_space_group_name_H-M_alt    "P 1"
_space_group_IT_number       1

loop_
  _space_group_symop_operation_xyz
  'x, y, z'

loop_
  _atom_site_type_symbol
  _atom_site_label
  _atom_site_symmetry_multiplicity
  _atom_site_fract_x
  _atom_site_fract_y
  _atom_site_fract_z
  _atom_site_occupancy
  B   B1        1.0  0.55300  0.44700  0.25000  1.0000
  B   B2        1.0  0.19700  0.80300  0.25000  1.0000
  B   B3        1.0  0.80300  0.19700  0.75000  1.0000
  B   B4        1.0  0.44700  0.55300  0.75000  1.0000
  Ce  Ce1       1.0  0.87500  0.12500  0.25000  1.0000
  Ce  Ce2       1.0  0.12500  0.87500  0.75000  1.0000
  Ir  Ir1       1.0  0.75400  0.50400  0.00892  1.0000
  Ir  Ir2       1.0  0.49600  0.24600  0.49100  1.0000
  Ir  Ir3       1.0  0.50400  0.75400  0.50900  1.0000
  Ir  Ir4       1.0  0.24600  0.49600  0.99100  1.0000
