data_image0
_chemical_formula_structural       B4Ir4Y2
_chemical_formula_sum              "B4 Ir4 Y2"
_cell_length_a       5.49658
_cell_length_b       5.49658
_cell_length_c       6.18463
_cell_angle_alpha    104.311
_cell_angle_beta     104.311
_cell_angle_gamma    116.343

_space_group_name_H-M_alt    "P 1"
_space_group_IT_number       1

loop_
  _space_group_symop_operation_xyz
  'x, y, z'

loop_
  _atom_site_type_symbol
  _atom_site_label
  _atom_site_symmetry_multiplicity
  _atom_site_fract_x
  _atom_site_fract_y
  _atom_site_fract_z
  _atom_site_occupancy
  B   B1        1.0  0.55500  0.44500  0.25000  1.0000
  B   B2        1.0  0.19500  0.80500  0.25000  1.0000
  B   B3        1.0  0.80500  0.19500  0.75000  1.0000
  B   B4        1.0  0.44500  0.55500  0.75000  1.0000
  Ir  Ir1       1.0  0.75200  0.50200  0.00473  1.0000
  Ir  Ir2       1.0  0.49800  0.24800  0.49500  1.0000
  Ir  Ir3       1.0  0.50200  0.75200  0.50500  1.0000
  Ir  Ir4       1.0  0.24800  0.49800  0.99500  1.0000
  Y   Y1        1.0  0.87500  0.12500  0.25000  1.0000
  Y   Y2        1.0  0.12500  0.87500  0.75000  1.0000
