data_image0
_chemical_formula_structural       Al6Zr4
_chemical_formula_sum              "Al6 Zr4"
_cell_length_a       5.56116
_cell_length_b       5.56116
_cell_length_c       7.50975
_cell_angle_alpha    100.775
_cell_angle_beta     100.775
_cell_angle_gamma    119.674

_space_group_name_H-M_alt    "P 1"
_space_group_IT_number       1

loop_
  _space_group_symop_operation_xyz
  'x, y, z'

loop_
  _atom_site_type_symbol
  _atom_site_label
  _atom_site_symmetry_multiplicity
  _atom_site_fract_x
  _atom_site_fract_y
  _atom_site_fract_z
  _atom_site_occupancy
  Al  Al1       1.0  0.59900  0.59900  0.00000  1.0000
  Al  Al2       1.0  0.41000  0.27200  0.22900  1.0000
  Al  Al3       1.0  0.43000  0.79200  0.27100  1.0000
  Al  Al4       1.0  0.84900  0.34900  0.50000  1.0000
  Al  Al5       1.0  0.52200  0.16000  0.72900  1.0000
  Al  Al6       1.0  0.04220  0.18000  0.77100  1.0000
  Zr  Zr1       1.0  0.85500  0.21900  0.10500  1.0000
  Zr  Zr2       1.0  0.00000  0.86400  0.39500  1.0000
  Zr  Zr3       1.0  0.46900  0.60500  0.60500  1.0000
  Zr  Zr4       1.0  0.11400  0.75000  0.89500  1.0000
