data_image0
_chemical_formula_structural       C3Mo2U2
_chemical_formula_sum              "C3 Mo2 U2"
_cell_length_a       3.12947
_cell_length_b       5.5562
_cell_length_c       5.96256
_cell_angle_alpha    104.715
_cell_angle_beta     105.214
_cell_angle_gamma    90

_space_group_name_H-M_alt    "P 1"
_space_group_IT_number       1

loop_
  _space_group_symop_operation_xyz
  'x, y, z'

loop_
  _atom_site_type_symbol
  _atom_site_label
  _atom_site_symmetry_multiplicity
  _atom_site_fract_x
  _atom_site_fract_y
  _atom_site_fract_z
  _atom_site_occupancy
  C   C1        1.0  0.74900  0.23700  0.49800  1.0000
  C   C2        1.0  0.25100  0.76300  0.50200  1.0000
  C   C3        1.0  0.00000  0.50000  0.00000  1.0000
  Mo  Mo1       1.0  0.15500  0.36800  0.31000  1.0000
  Mo  Mo2       1.0  0.84500  0.63200  0.69000  1.0000
  U   U1        1.0  0.60200  0.83300  0.20400  1.0000
  U   U2        1.0  0.39800  0.16700  0.79600  1.0000
