data_image0
_chemical_formula_structural       I4O2Ta2
_chemical_formula_sum              "I4 O2 Ta2"
_cell_length_a       3.89782
_cell_length_b       7.50329
_cell_length_c       8.03204
_cell_angle_alpha    104.776
_cell_angle_beta     104.043
_cell_angle_gamma    90

_space_group_name_H-M_alt    "P 1"
_space_group_IT_number       1

loop_
  _space_group_symop_operation_xyz
  'x, y, z'

loop_
  _atom_site_type_symbol
  _atom_site_label
  _atom_site_symmetry_multiplicity
  _atom_site_fract_x
  _atom_site_fract_y
  _atom_site_fract_z
  _atom_site_occupancy
  I   I1        1.0  0.12500  0.06790  0.25100  1.0000
  I   I2        1.0  0.15400  0.58500  0.30800  1.0000
  I   I3        1.0  0.84600  0.41500  0.69200  1.0000
  I   I4        1.0  0.87500  0.93200  0.74900  1.0000
  O   O1        1.0  0.50000  0.71300  0.00019  1.0000
  O   O2        1.0  0.50000  0.28700  0.00000  1.0000
  Ta  Ta1       1.0  0.00026  0.29400  0.00051  1.0000
  Ta  Ta2       1.0  0.00000  0.70600  0.99900  1.0000
