data_image0
_chemical_formula_structural       Cl8Zr2
_chemical_formula_sum              "Cl8 Zr2"
_cell_length_a       6.41569
_cell_length_b       7.47174
_cell_length_c       6.29775
_cell_angle_alpha    90
_cell_angle_beta     109.209
_cell_angle_gamma    90

_space_group_name_H-M_alt    "P 1"
_space_group_IT_number       1

loop_
  _space_group_symop_operation_xyz
  'x, y, z'

loop_
  _atom_site_type_symbol
  _atom_site_label
  _atom_site_symmetry_multiplicity
  _atom_site_fract_x
  _atom_site_fract_y
  _atom_site_fract_z
  _atom_site_occupancy
  Cl  Cl1       1.0  0.77300  0.89200  0.00215  1.0000
  Cl  Cl2       1.0  0.74400  0.36400  0.01960  1.0000
  Cl  Cl3       1.0  0.25600  0.36400  0.48000  1.0000
  Cl  Cl4       1.0  0.22700  0.89200  0.49800  1.0000
  Cl  Cl5       1.0  0.77300  0.10800  0.50200  1.0000
  Cl  Cl6       1.0  0.74400  0.63600  0.52000  1.0000
  Cl  Cl7       1.0  0.25600  0.63600  0.98000  1.0000
  Cl  Cl8       1.0  0.22700  0.10800  0.99800  1.0000
  Zr  Zr1       1.0  0.00000  0.16400  0.25000  1.0000
  Zr  Zr2       1.0  0.00000  0.83600  0.75000  1.0000
