data_image0
_chemical_formula_structural       Ca6Hg4
_chemical_formula_sum              "Ca6 Hg4"
_cell_length_a       8.4961
_cell_length_b       8.4961
_cell_length_c       4.18815
_cell_angle_alpha    90
_cell_angle_beta     90
_cell_angle_gamma    90

_space_group_name_H-M_alt    "P 1"
_space_group_IT_number       1

loop_
  _space_group_symop_operation_xyz
  'x, y, z'

loop_
  _atom_site_type_symbol
  _atom_site_label
  _atom_site_symmetry_multiplicity
  _atom_site_fract_x
  _atom_site_fract_y
  _atom_site_fract_z
  _atom_site_occupancy
  Ca  Ca1       1.0  0.00000  0.00000  0.00000  1.0000
  Ca  Ca2       1.0  0.50000  0.50000  0.00000  1.0000
  Ca  Ca3       1.0  0.34400  0.15600  0.50000  1.0000
  Ca  Ca4       1.0  0.84400  0.34400  0.50000  1.0000
  Ca  Ca5       1.0  0.15600  0.65600  0.50000  1.0000
  Ca  Ca6       1.0  0.65600  0.84400  0.50000  1.0000
  Hg  Hg1       1.0  0.64100  0.14100  0.00000  1.0000
  Hg  Hg2       1.0  0.14100  0.35900  0.00000  1.0000
  Hg  Hg3       1.0  0.85900  0.64100  0.00000  1.0000
  Hg  Hg4       1.0  0.35900  0.85900  0.00000  1.0000
