data_image0
_chemical_formula_structural       F6LiTa
_chemical_formula_sum              "F6 Li1 Ta1"
_cell_length_a       4.77344
_cell_length_b       4.77344
_cell_length_c       5.19842
_cell_angle_alpha    117.331
_cell_angle_beta     90
_cell_angle_gamma    60

_space_group_name_H-M_alt    "P 1"
_space_group_IT_number       1

loop_
  _space_group_symop_operation_xyz
  'x, y, z'

loop_
  _atom_site_type_symbol
  _atom_site_label
  _atom_site_symmetry_multiplicity
  _atom_site_fract_x
  _atom_site_fract_y
  _atom_site_fract_z
  _atom_site_occupancy
  F   F1        1.0  0.59200  0.16000  0.24900  1.0000
  F   F2        1.0  0.91100  0.49700  0.24900  1.0000
  F   F3        1.0  0.24800  0.84100  0.24900  1.0000
  F   F4        1.0  0.75200  0.15900  0.75100  1.0000
  F   F5        1.0  0.08930  0.50300  0.75100  1.0000
  F   F6        1.0  0.40800  0.84000  0.75100  1.0000
  Li  Li1       1.0  0.50000  0.00000  0.50000  1.0000
  Ta  Ta1       1.0  0.00000  0.00000  0.00000  1.0000
