data_image0
_chemical_formula_structural       ErRbS2
_chemical_formula_sum              "Er1 Rb1 S2"
_cell_length_a       4.03506
_cell_length_b       4.03507
_cell_length_c       8.02894
_cell_angle_alpha    75.4466
_cell_angle_beta     104.553
_cell_angle_gamma    120

_space_group_name_H-M_alt    "P 1"
_space_group_IT_number       1

loop_
  _space_group_symop_operation_xyz
  'x, y, z'

loop_
  _atom_site_type_symbol
  _atom_site_label
  _atom_site_symmetry_multiplicity
  _atom_site_fract_x
  _atom_site_fract_y
  _atom_site_fract_z
  _atom_site_occupancy
  Er  Er1       1.0  0.50000  0.50000  0.50000  1.0000
  Rb  Rb1       1.0  0.00000  0.00000  0.00000  1.0000
  S   S1        1.0  0.77000  0.23000  0.31000  1.0000
  S   S2        1.0  0.23000  0.77000  0.69000  1.0000
