data_image0
_chemical_formula_structural       CFO3RbSr
_chemical_formula_sum              "C1 F1 O3 Rb1 Sr1"
_cell_length_a       5.26144
_cell_length_b       5.26145
_cell_length_c       4.7291
_cell_angle_alpha    90
_cell_angle_beta     90
_cell_angle_gamma    120

_space_group_name_H-M_alt    "P 1"
_space_group_IT_number       1

loop_
  _space_group_symop_operation_xyz
  'x, y, z'

loop_
  _atom_site_type_symbol
  _atom_site_label
  _atom_site_symmetry_multiplicity
  _atom_site_fract_x
  _atom_site_fract_y
  _atom_site_fract_z
  _atom_site_occupancy
  C   C1        1.0  0.00000  0.00000  0.50000  1.0000
  F   F1        1.0  0.66700  0.33300  0.00000  1.0000
  O   O1        1.0  0.14300  0.28500  0.50000  1.0000
  O   O2        1.0  0.14200  0.85700  0.50000  1.0000
  O   O3        1.0  0.71500  0.85800  0.50000  1.0000
  Rb  Rb1       1.0  0.33300  0.66700  0.00000  1.0000
  Sr  Sr1       1.0  0.66700  0.33300  0.50000  1.0000
