data_image0
_chemical_formula_structural       F6NbV
_chemical_formula_sum              "F6 Nb1 V1"
_cell_length_a       4.88702
_cell_length_b       4.88714
_cell_length_c       5.43709
_cell_angle_alpha    63.294
_cell_angle_beta     116.715
_cell_angle_gamma    119.997

_space_group_name_H-M_alt    "P 1"
_space_group_IT_number       1

loop_
  _space_group_symop_operation_xyz
  'x, y, z'

loop_
  _atom_site_type_symbol
  _atom_site_label
  _atom_site_symmetry_multiplicity
  _atom_site_fract_x
  _atom_site_fract_y
  _atom_site_fract_z
  _atom_site_occupancy
  F   F1        1.0  0.75300  0.58700  0.24600  1.0000
  F   F2        1.0  0.07970  0.24700  0.24600  1.0000
  F   F3        1.0  0.41300  0.92000  0.24600  1.0000
  F   F4        1.0  0.58700  0.07970  0.75400  1.0000
  F   F5        1.0  0.92000  0.75300  0.75400  1.0000
  F   F6        1.0  0.24700  0.41300  0.75400  1.0000
  Nb  Nb1       1.0  0.50000  0.50000  0.50000  1.0000
  V   V1        1.0  0.00000  0.00000  0.00000  1.0000
