data_image0
_chemical_formula_structural       Cu4NaSb2
_chemical_formula_sum              "Cu4 Na1 Sb2"
_cell_length_a       4.27313
_cell_length_b       4.27313
_cell_length_c       8.77676
_cell_angle_alpha    75.9107
_cell_angle_beta     104.089
_cell_angle_gamma    120

_space_group_name_H-M_alt    "P 1"
_space_group_IT_number       1

loop_
  _space_group_symop_operation_xyz
  'x, y, z'

loop_
  _atom_site_type_symbol
  _atom_site_label
  _atom_site_symmetry_multiplicity
  _atom_site_fract_x
  _atom_site_fract_y
  _atom_site_fract_z
  _atom_site_occupancy
  Cu  Cu1       1.0  0.45000  0.55000  0.34900  1.0000
  Cu  Cu2       1.0  0.14200  0.85800  0.42500  1.0000
  Cu  Cu3       1.0  0.85800  0.14200  0.57500  1.0000
  Cu  Cu4       1.0  0.55000  0.45000  0.65100  1.0000
  Na  Na1       1.0  0.00000  0.00000  0.00000  1.0000
  Sb  Sb1       1.0  0.75100  0.24900  0.25300  1.0000
  Sb  Sb2       1.0  0.24900  0.75100  0.74700  1.0000
