data_image0
_chemical_formula_structural       Pt6Sb4
_chemical_formula_sum              "Pt6 Sb4"
_cell_length_a       5.37352
_cell_length_b       6.52803
_cell_length_c       6.96274
_cell_angle_alpha    117.955
_cell_angle_beta     112.698
_cell_angle_gamma    90

_space_group_name_H-M_alt    "P 1"
_space_group_IT_number       1

loop_
  _space_group_symop_operation_xyz
  'x, y, z'

loop_
  _atom_site_type_symbol
  _atom_site_label
  _atom_site_symmetry_multiplicity
  _atom_site_fract_x
  _atom_site_fract_y
  _atom_site_fract_z
  _atom_site_occupancy
  Pt  Pt1       1.0  0.25000  0.00000  0.00000  1.0000
  Pt  Pt2       1.0  0.75000  0.00000  0.00000  1.0000
  Pt  Pt3       1.0  0.60800  0.47900  0.21700  1.0000
  Pt  Pt4       1.0  0.10800  0.73700  0.21700  1.0000
  Pt  Pt5       1.0  0.89200  0.26300  0.78300  1.0000
  Pt  Pt6       1.0  0.39200  0.52100  0.78300  1.0000
  Sb  Sb1       1.0  0.15700  0.39400  0.31300  1.0000
  Sb  Sb2       1.0  0.65700  0.91900  0.31300  1.0000
  Sb  Sb3       1.0  0.34300  0.08130  0.68700  1.0000
  Sb  Sb4       1.0  0.84300  0.60600  0.68700  1.0000
