data_image0
_chemical_formula_structural       Au2Li4Sn4
_chemical_formula_sum              "Au2 Li4 Sn4"
_cell_length_a       4.60598
_cell_length_b       4.60598
_cell_length_c       10.4369
_cell_angle_alpha    102.748
_cell_angle_beta     102.748
_cell_angle_gamma    90

_space_group_name_H-M_alt    "P 1"
_space_group_IT_number       1

loop_
  _space_group_symop_operation_xyz
  'x, y, z'

loop_
  _atom_site_type_symbol
  _atom_site_label
  _atom_site_symmetry_multiplicity
  _atom_site_fract_x
  _atom_site_fract_y
  _atom_site_fract_z
  _atom_site_occupancy
  Au  Au1       1.0  0.62500  0.87500  0.25000  1.0000
  Au  Au2       1.0  0.37500  0.12500  0.75000  1.0000
  Li  Li1       1.0  0.55100  0.30100  0.10100  1.0000
  Li  Li2       1.0  0.19900  0.94900  0.39900  1.0000
  Li  Li3       1.0  0.80100  0.05070  0.60100  1.0000
  Li  Li4       1.0  0.44900  0.69900  0.89900  1.0000
  Sn  Sn1       1.0  0.04780  0.79800  0.09560  1.0000
  Sn  Sn2       1.0  0.70200  0.45200  0.40400  1.0000
  Sn  Sn3       1.0  0.29800  0.54800  0.59600  1.0000
  Sn  Sn4       1.0  0.95200  0.20200  0.90400  1.0000
