data_image0
_chemical_formula_structural       F6NiRb2
_chemical_formula_sum              "F6 Ni1 Rb2"
_cell_length_a       5.63109
_cell_length_b       5.59577
_cell_length_c       5.48432
_cell_angle_alpha    119.584
_cell_angle_beta     90.4372
_cell_angle_gamma    120.344

_space_group_name_H-M_alt    "P 1"
_space_group_IT_number       1

loop_
  _space_group_symop_operation_xyz
  'x, y, z'

loop_
  _atom_site_type_symbol
  _atom_site_label
  _atom_site_symmetry_multiplicity
  _atom_site_fract_x
  _atom_site_fract_y
  _atom_site_fract_z
  _atom_site_occupancy
  F   F1        1.0  0.22900  0.45800  0.23100  1.0000
  F   F2        1.0  0.77400  0.99900  0.23200  1.0000
  F   F3        1.0  0.23000  0.00358  0.23400  1.0000
  F   F4        1.0  0.77000  0.99600  0.76600  1.0000
  F   F5        1.0  0.22600  0.00126  0.76800  1.0000
  F   F6        1.0  0.77100  0.54200  0.76900  1.0000
  Ni  Ni1       1.0  0.00000  0.00000  0.00000  1.0000
  Rb  Rb1       1.0  0.74800  0.49200  0.24400  1.0000
  Rb  Rb2       1.0  0.25200  0.50800  0.75600  1.0000
