data_image0
_chemical_formula_structural       CCl2N2Sr2
_chemical_formula_sum              "C1 Cl2 N2 Sr2"
_cell_length_a       4.25171
_cell_length_b       5.2713
_cell_length_c       7.25533
_cell_angle_alpha    97.2701
_cell_angle_beta     90
_cell_angle_gamma    113.784

_space_group_name_H-M_alt    "P 1"
_space_group_IT_number       1

loop_
  _space_group_symop_operation_xyz
  'x, y, z'

loop_
  _atom_site_type_symbol
  _atom_site_label
  _atom_site_symmetry_multiplicity
  _atom_site_fract_x
  _atom_site_fract_y
  _atom_site_fract_z
  _atom_site_occupancy
  C   C1        1.0  0.00000  0.00000  0.50000  1.0000
  Cl  Cl1       1.0  0.37000  0.74100  0.14800  1.0000
  Cl  Cl2       1.0  0.63000  0.25900  0.85200  1.0000
  N   N1        1.0  0.11600  0.23200  0.44500  1.0000
  N   N2        1.0  0.88400  0.76800  0.55500  1.0000
  Sr  Sr1       1.0  0.68200  0.36500  0.27100  1.0000
  Sr  Sr2       1.0  0.31800  0.63500  0.72900  1.0000
