data_image0
_chemical_formula_structural       Gd2Mg3Ni2
_chemical_formula_sum              "Gd2 Mg3 Ni2"
_cell_length_a       3.67066
_cell_length_b       3.96842
_cell_length_c       10.7255
_cell_angle_alpha    79.3389
_cell_angle_beta     90
_cell_angle_gamma    90

_space_group_name_H-M_alt    "P 1"
_space_group_IT_number       1

loop_
  _space_group_symop_operation_xyz
  'x, y, z'

loop_
  _atom_site_type_symbol
  _atom_site_label
  _atom_site_symmetry_multiplicity
  _atom_site_fract_x
  _atom_site_fract_y
  _atom_site_fract_z
  _atom_site_occupancy
  Gd  Gd1       1.0  0.00000  0.82300  0.35400  1.0000
  Gd  Gd2       1.0  0.00000  0.17700  0.64600  1.0000
  Mg  Mg1       1.0  0.00000  0.00000  0.00000  1.0000
  Mg  Mg2       1.0  0.50000  0.42000  0.16100  1.0000
  Mg  Mg3       1.0  0.50000  0.58000  0.83900  1.0000
  Ni  Ni1       1.0  0.50000  0.28700  0.42600  1.0000
  Ni  Ni2       1.0  0.50000  0.71300  0.57400  1.0000
