data_image0
_chemical_formula_structural       Nb2Pb2S4
_chemical_formula_sum              "Nb2 Pb2 S4"
_cell_length_a       3.38594
_cell_length_b       3.38575
_cell_length_c       17.909
_cell_angle_alpha    90
_cell_angle_beta     90
_cell_angle_gamma    120.002

_space_group_name_H-M_alt    "P 1"
_space_group_IT_number       1

loop_
  _space_group_symop_operation_xyz
  'x, y, z'

loop_
  _atom_site_type_symbol
  _atom_site_label
  _atom_site_symmetry_multiplicity
  _atom_site_fract_x
  _atom_site_fract_y
  _atom_site_fract_z
  _atom_site_occupancy
  Nb  Nb1       1.0  0.33300  0.66700  0.25000  1.0000
  Nb  Nb2       1.0  0.66700  0.33300  0.75000  1.0000
  Pb  Pb1       1.0  0.00000  0.00000  0.00000  1.0000
  Pb  Pb2       1.0  0.00000  0.00000  0.50000  1.0000
  S   S1        1.0  0.00000  0.00000  0.16400  1.0000
  S   S2        1.0  0.00000  0.00000  0.33600  1.0000
  S   S3        1.0  0.00003  0.00005  0.66400  1.0000
  S   S4        1.0  0.00003  0.00005  0.83600  1.0000
