data_image0
_chemical_formula_structural       B4Re2Ti4
_chemical_formula_sum              "B4 Re2 Ti4"
_cell_length_a       5.93117
_cell_length_b       5.93117
_cell_length_c       3.16892
_cell_angle_alpha    90
_cell_angle_beta     90
_cell_angle_gamma    90

_space_group_name_H-M_alt    "P 1"
_space_group_IT_number       1

loop_
  _space_group_symop_operation_xyz
  'x, y, z'

loop_
  _atom_site_type_symbol
  _atom_site_label
  _atom_site_symmetry_multiplicity
  _atom_site_fract_x
  _atom_site_fract_y
  _atom_site_fract_z
  _atom_site_occupancy
  B   B1        1.0  0.60800  0.10800  0.00000  1.0000
  B   B2        1.0  0.10800  0.39200  0.00000  1.0000
  B   B3        1.0  0.89200  0.60800  0.00000  1.0000
  B   B4        1.0  0.39200  0.89200  0.00000  1.0000
  Re  Re1       1.0  0.00000  0.00000  0.00000  1.0000
  Re  Re2       1.0  0.50000  0.50000  0.00000  1.0000
  Ti  Ti1       1.0  0.32000  0.18000  0.50000  1.0000
  Ti  Ti2       1.0  0.82000  0.32000  0.50000  1.0000
  Ti  Ti3       1.0  0.18000  0.68000  0.50000  1.0000
  Ti  Ti4       1.0  0.68000  0.82000  0.50000  1.0000
