data_image0
_chemical_formula_structural       Ge6Ni2Sm2
_chemical_formula_sum              "Ge6 Ni2 Sm2"
_cell_length_a       4.13857
_cell_length_b       4.13256
_cell_length_c       11.0954
_cell_angle_alpha    100.733
_cell_angle_beta     90
_cell_angle_gamma    90

_space_group_name_H-M_alt    "P 1"
_space_group_IT_number       1

loop_
  _space_group_symop_operation_xyz
  'x, y, z'

loop_
  _atom_site_type_symbol
  _atom_site_label
  _atom_site_symmetry_multiplicity
  _atom_site_fract_x
  _atom_site_fract_y
  _atom_site_fract_z
  _atom_site_occupancy
  Ge  Ge1       1.0  0.50000  0.55700  0.11400  1.0000
  Ge  Ge2       1.0  0.00000  0.05710  0.11400  1.0000
  Ge  Ge3       1.0  0.00000  0.71600  0.43300  1.0000
  Ge  Ge4       1.0  0.00000  0.28400  0.56700  1.0000
  Ge  Ge5       1.0  0.00000  0.94300  0.88600  1.0000
  Ge  Ge6       1.0  0.50000  0.44300  0.88600  1.0000
  Ni  Ni1       1.0  0.00000  0.61000  0.21900  1.0000
  Ni  Ni2       1.0  0.00000  0.39000  0.78100  1.0000
  Sm  Sm1       1.0  0.50000  0.16900  0.33700  1.0000
  Sm  Sm2       1.0  0.50000  0.83100  0.66300  1.0000
