data_image0
_chemical_formula_structural       Se6Ta4
_chemical_formula_sum              "Se6 Ta4"
_cell_length_a       6.61038
_cell_length_b       3.40734
_cell_length_c       9.26534
_cell_angle_alpha    90
_cell_angle_beta     104.118
_cell_angle_gamma    90

_space_group_name_H-M_alt    "P 1"
_space_group_IT_number       1

loop_
  _space_group_symop_operation_xyz
  'x, y, z'

loop_
  _atom_site_type_symbol
  _atom_site_label
  _atom_site_symmetry_multiplicity
  _atom_site_fract_x
  _atom_site_fract_y
  _atom_site_fract_z
  _atom_site_occupancy
  Se  Se1       1.0  0.97400  0.25000  0.15700  1.0000
  Se  Se2       1.0  0.47700  0.75000  0.20700  1.0000
  Se  Se3       1.0  0.27400  0.75000  0.48600  1.0000
  Se  Se4       1.0  0.72600  0.25000  0.51400  1.0000
  Se  Se5       1.0  0.52300  0.25000  0.79300  1.0000
  Se  Se6       1.0  0.02560  0.75000  0.84300  1.0000
  Ta  Ta1       1.0  0.32000  0.25000  0.00059  1.0000
  Ta  Ta2       1.0  0.88700  0.75000  0.36500  1.0000
  Ta  Ta3       1.0  0.11300  0.25000  0.63500  1.0000
  Ta  Ta4       1.0  0.68000  0.75000  0.99900  1.0000
