data_image0
_chemical_formula_structural       B5Eu2Os3
_chemical_formula_sum              "B5 Eu2 Os3"
_cell_length_a       4.07318
_cell_length_b       5.68919
_cell_length_c       6.94194
_cell_angle_alpha    90.0565
_cell_angle_beta     107.06
_cell_angle_gamma    110.976

_space_group_name_H-M_alt    "P 1"
_space_group_IT_number       1

loop_
  _space_group_symop_operation_xyz
  'x, y, z'

loop_
  _atom_site_type_symbol
  _atom_site_label
  _atom_site_symmetry_multiplicity
  _atom_site_fract_x
  _atom_site_fract_y
  _atom_site_fract_z
  _atom_site_occupancy
  B   B1        1.0  0.59700  0.06430  0.12000  1.0000
  B   B2        1.0  0.94800  0.02190  0.31200  1.0000
  B   B3        1.0  0.77700  0.50000  0.50000  1.0000
  B   B4        1.0  0.61400  0.97800  0.68800  1.0000
  B   B5        1.0  0.41200  0.93600  0.88000  1.0000
  Eu  Eu1       1.0  0.17700  0.56200  0.23300  1.0000
  Eu  Eu2       1.0  0.38100  0.43800  0.76700  1.0000
  Os  Os1       1.0  0.00000  0.00000  0.00000  1.0000
  Os  Os2       1.0  0.53600  0.13600  0.40500  1.0000
  Os  Os3       1.0  0.99500  0.86400  0.59500  1.0000
