data_image0
_chemical_formula_structural       As4Cs4Pd2
_chemical_formula_sum              "As4 Cs4 Pd2"
_cell_length_a       6.44405
_cell_length_b       7.12925
_cell_length_c       8.29291
_cell_angle_alpha    64.5426
_cell_angle_beta     90
_cell_angle_gamma    90

_space_group_name_H-M_alt    "P 1"
_space_group_IT_number       1

loop_
  _space_group_symop_operation_xyz
  'x, y, z'

loop_
  _atom_site_type_symbol
  _atom_site_label
  _atom_site_symmetry_multiplicity
  _atom_site_fract_x
  _atom_site_fract_y
  _atom_site_fract_z
  _atom_site_occupancy
  As  As1       1.0  0.25000  0.06860  0.20500  1.0000
  As  As2       1.0  0.25000  0.72700  0.20500  1.0000
  As  As3       1.0  0.75000  0.27300  0.79500  1.0000
  As  As4       1.0  0.75000  0.93100  0.79500  1.0000
  Cs  Cs1       1.0  0.75000  0.40900  0.18100  1.0000
  Cs  Cs2       1.0  0.75000  0.79100  0.41800  1.0000
  Cs  Cs3       1.0  0.25000  0.20900  0.58200  1.0000
  Cs  Cs4       1.0  0.25000  0.59100  0.81900  1.0000
  Pd  Pd1       1.0  0.00000  0.00000  0.00000  1.0000
  Pd  Pd2       1.0  0.50000  0.00000  0.00000  1.0000
