data_image0
_chemical_formula_structural       Cl6Gd4
_chemical_formula_sum              "Cl6 Gd4"
_cell_length_a       3.89046
_cell_length_b       7.93766
_cell_length_c       9.67338
_cell_angle_alpha    103.857
_cell_angle_beta     101.601
_cell_angle_gamma    104.186

_space_group_name_H-M_alt    "P 1"
_space_group_IT_number       1

loop_
  _space_group_symop_operation_xyz
  'x, y, z'

loop_
  _atom_site_type_symbol
  _atom_site_label
  _atom_site_symmetry_multiplicity
  _atom_site_fract_x
  _atom_site_fract_y
  _atom_site_fract_z
  _atom_site_occupancy
  Cl  Cl1       1.0  0.53000  0.89100  0.16800  1.0000
  Cl  Cl2       1.0  0.95300  0.59000  0.31700  1.0000
  Cl  Cl3       1.0  0.78900  0.03800  0.54000  1.0000
  Cl  Cl4       1.0  0.49100  0.42300  0.56000  1.0000
  Cl  Cl5       1.0  0.32700  0.87000  0.78400  1.0000
  Cl  Cl6       1.0  0.75000  0.56800  0.93200  1.0000
  Gd  Gd1       1.0  0.00001  0.00155  0.99800  1.0000
  Gd  Gd2       1.0  0.28000  0.45900  0.10200  1.0000
  Gd  Gd3       1.0  0.79500  0.24600  0.34300  1.0000
  Gd  Gd4       1.0  0.48600  0.21400  0.75800  1.0000
