data_image0
_chemical_formula_structural       Cl2Ge2H6
_chemical_formula_sum              "Cl2 Ge2 H6"
_cell_length_a       4.48628
_cell_length_b       4.48628
_cell_length_c       8.16757
_cell_angle_alpha    90
_cell_angle_beta     90
_cell_angle_gamma    75.2921

_space_group_name_H-M_alt    "P 1"
_space_group_IT_number       1

loop_
  _space_group_symop_operation_xyz
  'x, y, z'

loop_
  _atom_site_type_symbol
  _atom_site_label
  _atom_site_symmetry_multiplicity
  _atom_site_fract_x
  _atom_site_fract_y
  _atom_site_fract_z
  _atom_site_occupancy
  Cl  Cl1       1.0  0.83000  0.17000  0.24900  1.0000
  Cl  Cl2       1.0  0.17000  0.83000  0.74900  1.0000
  Ge  Ge1       1.0  0.55900  0.44100  0.45300  1.0000
  Ge  Ge2       1.0  0.44100  0.55900  0.95300  1.0000
  H   H1        1.0  0.20100  0.43900  0.04590  1.0000
  H   H2        1.0  0.56100  0.79900  0.04590  1.0000
  H   H3        1.0  0.31400  0.68600  0.36400  1.0000
  H   H4        1.0  0.43900  0.20100  0.54600  1.0000
  H   H5        1.0  0.79900  0.56100  0.54600  1.0000
  H   H6        1.0  0.68600  0.31400  0.86400  1.0000
