data_image0
_chemical_formula_structural       Cu2Fe4Ge4
_chemical_formula_sum              "Cu2 Fe4 Ge4"
_cell_length_a       4.96505
_cell_length_b       3.98054
_cell_length_c       6.74945
_cell_angle_alpha    90
_cell_angle_beta     90
_cell_angle_gamma    90

_space_group_name_H-M_alt    "P 1"
_space_group_IT_number       1

loop_
  _space_group_symop_operation_xyz
  'x, y, z'

loop_
  _atom_site_type_symbol
  _atom_site_label
  _atom_site_symmetry_multiplicity
  _atom_site_fract_x
  _atom_site_fract_y
  _atom_site_fract_z
  _atom_site_occupancy
  Cu  Cu1       1.0  0.00000  0.00000  0.00000  1.0000
  Cu  Cu2       1.0  0.50000  0.00000  0.00000  1.0000
  Fe  Fe1       1.0  0.25000  0.50000  0.16200  1.0000
  Fe  Fe2       1.0  0.00000  0.50000  0.50000  1.0000
  Fe  Fe3       1.0  0.50000  0.50000  0.50000  1.0000
  Fe  Fe4       1.0  0.75000  0.50000  0.83800  1.0000
  Ge  Ge1       1.0  0.75000  0.50000  0.19200  1.0000
  Ge  Ge2       1.0  0.25000  0.00000  0.37700  1.0000
  Ge  Ge3       1.0  0.75000  0.00000  0.62300  1.0000
  Ge  Ge4       1.0  0.25000  0.50000  0.80800  1.0000
