data_image0
_chemical_formula_structural       Ba2LaO6Ru
_chemical_formula_sum              "Ba2 La1 O6 Ru1"
_cell_length_a       6.02282
_cell_length_b       6.02453
_cell_length_c       6.04527
_cell_angle_alpha    119.552
_cell_angle_beta     119.352
_cell_angle_gamma    60.2355

_space_group_name_H-M_alt    "P 1"
_space_group_IT_number       1

loop_
  _space_group_symop_operation_xyz
  'x, y, z'

loop_
  _atom_site_type_symbol
  _atom_site_label
  _atom_site_symmetry_multiplicity
  _atom_site_fract_x
  _atom_site_fract_y
  _atom_site_fract_z
  _atom_site_occupancy
  Ba  Ba1       1.0  0.74800  0.25000  0.24600  1.0000
  Ba  Ba2       1.0  0.25200  0.75000  0.75400  1.0000
  La  La1       1.0  0.50000  0.00000  0.50000  1.0000
  O   O1        1.0  0.25000  0.23300  0.19000  1.0000
  O   O2        1.0  0.26000  0.69800  0.20600  1.0000
  O   O3        1.0  0.82400  0.72300  0.28100  1.0000
  O   O4        1.0  0.17600  0.27700  0.71900  1.0000
  O   O5        1.0  0.74000  0.30200  0.79400  1.0000
  O   O6        1.0  0.75000  0.76700  0.81000  1.0000
  Ru  Ru1       1.0  1.00000  0.50000  1.00000  1.0000
