data_image0
_chemical_formula_structural       F6Hg3Nb
_chemical_formula_sum              "F6 Hg3 Nb1"
_cell_length_a       5.00506
_cell_length_b       5.00507
_cell_length_c       7.43364
_cell_angle_alpha    90.0001
_cell_angle_beta     90
_cell_angle_gamma    120

_space_group_name_H-M_alt    "P 1"
_space_group_IT_number       1

loop_
  _space_group_symop_operation_xyz
  'x, y, z'

loop_
  _atom_site_type_symbol
  _atom_site_label
  _atom_site_symmetry_multiplicity
  _atom_site_fract_x
  _atom_site_fract_y
  _atom_site_fract_z
  _atom_site_occupancy
  F   F1        1.0  0.31100  0.00000  0.15400  1.0000
  F   F2        1.0  0.68900  0.68900  0.15400  1.0000
  F   F3        1.0  0.00000  0.31100  0.15400  1.0000
  F   F4        1.0  0.00000  0.68900  0.84600  1.0000
  F   F5        1.0  0.68900  0.00000  0.84600  1.0000
  F   F6        1.0  0.31100  0.31100  0.84600  1.0000
  Hg  Hg1       1.0  0.66700  0.33300  0.50000  1.0000
  Hg  Hg2       1.0  1.00000  0.00000  0.50000  1.0000
  Hg  Hg3       1.0  0.33300  0.66700  0.50000  1.0000
  Nb  Nb1       1.0  0.00000  0.00000  0.00000  1.0000
