data_image0
_chemical_formula_structural       Fe2P2S6
_chemical_formula_sum              "Fe2 P2 S6"
_cell_length_a       5.90279
_cell_length_b       5.90915
_cell_length_c       6.81739
_cell_angle_alpha    98.3199
_cell_angle_beta     106.841
_cell_angle_gamma    60.0356

_space_group_name_H-M_alt    "P 1"
_space_group_IT_number       1

loop_
  _space_group_symop_operation_xyz
  'x, y, z'

loop_
  _atom_site_type_symbol
  _atom_site_label
  _atom_site_symmetry_multiplicity
  _atom_site_fract_x
  _atom_site_fract_y
  _atom_site_fract_z
  _atom_site_occupancy
  Fe  Fe1       1.0  0.66800  0.66400  1.00000  1.0000
  Fe  Fe2       1.0  0.33200  0.33600  0.00000  1.0000
  P   P1        1.0  0.05620  0.00000  0.16800  1.0000
  P   P2        1.0  0.94400  0.00000  0.83200  1.0000
  S   S1        1.0  0.74300  0.00000  0.24000  1.0000
  S   S2        1.0  0.08060  0.33600  0.24100  1.0000
  S   S3        1.0  0.41700  0.66400  0.24100  1.0000
  S   S4        1.0  0.58300  0.33600  0.75900  1.0000
  S   S5        1.0  0.91900  0.66400  0.75900  1.0000
  S   S6        1.0  0.25700  0.00000  0.76000  1.0000
