data_image0
_chemical_formula_structural       Cs4Mn2Se4
_chemical_formula_sum              "Cs4 Mn2 Se4"
_cell_length_a       6.78379
_cell_length_b       7.5972
_cell_length_c       8.84094
_cell_angle_alpha    115.446
_cell_angle_beta     112.56
_cell_angle_gamma    90

_space_group_name_H-M_alt    "P 1"
_space_group_IT_number       1

loop_
  _space_group_symop_operation_xyz
  'x, y, z'

loop_
  _atom_site_type_symbol
  _atom_site_label
  _atom_site_symmetry_multiplicity
  _atom_site_fract_x
  _atom_site_fract_y
  _atom_site_fract_z
  _atom_site_occupancy
  Cs  Cs1       1.0  0.64700  0.48100  0.29400  1.0000
  Cs  Cs2       1.0  0.14700  0.81200  0.29400  1.0000
  Cs  Cs3       1.0  0.85300  0.18800  0.70600  1.0000
  Cs  Cs4       1.0  0.35300  0.51900  0.70600  1.0000
  Mn  Mn1       1.0  0.25000  0.00000  0.00000  1.0000
  Mn  Mn2       1.0  0.75000  0.00000  0.00000  1.0000
  Se  Se1       1.0  0.09630  0.27300  0.19300  1.0000
  Se  Se2       1.0  0.59600  0.92000  0.19300  1.0000
  Se  Se3       1.0  0.40400  0.08050  0.80700  1.0000
  Se  Se4       1.0  0.90400  0.72700  0.80700  1.0000
