data_image0
_chemical_formula_structural       Li4O5U
_chemical_formula_sum              "Li4 O5 U1"
_cell_length_a       4.45773
_cell_length_b       5.22341
_cell_length_c       5.22341
_cell_angle_alpha    100.491
_cell_angle_beta     115.259
_cell_angle_gamma    64.7412

_space_group_name_H-M_alt    "P 1"
_space_group_IT_number       1

loop_
  _space_group_symop_operation_xyz
  'x, y, z'

loop_
  _atom_site_type_symbol
  _atom_site_label
  _atom_site_symmetry_multiplicity
  _atom_site_fract_x
  _atom_site_fract_y
  _atom_site_fract_z
  _atom_site_occupancy
  Li  Li1       1.0  0.81300  0.60100  0.22700  1.0000
  Li  Li2       1.0  0.58600  0.22700  0.39900  1.0000
  Li  Li3       1.0  0.41400  0.77300  0.60100  1.0000
  Li  Li4       1.0  0.18700  0.39900  0.77300  1.0000
  O   O1        1.0  0.50000  0.00000  0.00000  1.0000
  O   O2        1.0  0.29000  0.61700  0.19700  1.0000
  O   O3        1.0  0.09280  0.19700  0.38300  1.0000
  O   O4        1.0  0.90700  0.80300  0.61700  1.0000
  O   O5        1.0  0.71000  0.38300  0.80300  1.0000
  U   U1        1.0  0.00000  0.00000  0.00000  1.0000
