data_image0
_chemical_formula_structural       Cl4O4S2
_chemical_formula_sum              "Cl4 O4 S2"
_cell_length_a       5.39857
_cell_length_b       5.77846
_cell_length_c       8.11857
_cell_angle_alpha    98.9349
_cell_angle_beta     70.5805
_cell_angle_gamma    117.848

_space_group_name_H-M_alt    "P 1"
_space_group_IT_number       1

loop_
  _space_group_symop_operation_xyz
  'x, y, z'

loop_
  _atom_site_type_symbol
  _atom_site_label
  _atom_site_symmetry_multiplicity
  _atom_site_fract_x
  _atom_site_fract_y
  _atom_site_fract_z
  _atom_site_occupancy
  Cl  Cl1       1.0  0.58200  0.72900  0.09320  1.0000
  Cl  Cl2       1.0  0.42500  0.22900  0.40700  1.0000
  Cl  Cl3       1.0  0.60400  0.77100  0.59300  1.0000
  Cl  Cl4       1.0  0.94700  0.27100  0.90700  1.0000
  O   O1        1.0  0.11300  0.11100  0.14500  1.0000
  O   O2        1.0  0.00884  0.61100  0.35500  1.0000
  O   O3        1.0  0.75200  0.38900  0.64500  1.0000
  O   O4        1.0  0.14700  0.88900  0.85500  1.0000
  S   S1        1.0  0.00171  0.00000  0.00000  1.0000
  S   S2        1.0  0.75200  0.50000  0.50000  1.0000
