data_image0
_chemical_formula_structural       Fe2Ta2Te6
_chemical_formula_sum              "Fe2 Ta2 Te6"
_cell_length_a       7.65709
_cell_length_b       3.57295
_cell_length_c       10.2112
_cell_angle_alpha    90
_cell_angle_beta     110.914
_cell_angle_gamma    90

_space_group_name_H-M_alt    "P 1"
_space_group_IT_number       1

loop_
  _space_group_symop_operation_xyz
  'x, y, z'

loop_
  _atom_site_type_symbol
  _atom_site_label
  _atom_site_symmetry_multiplicity
  _atom_site_fract_x
  _atom_site_fract_y
  _atom_site_fract_z
  _atom_site_occupancy
  Fe  Fe1       1.0  0.10900  0.75000  0.08730  1.0000
  Fe  Fe2       1.0  0.89100  0.25000  0.91300  1.0000
  Ta  Ta1       1.0  0.32600  0.25000  0.29500  1.0000
  Ta  Ta2       1.0  0.67400  0.75000  0.70500  1.0000
  Te  Te1       1.0  0.47000  0.75000  0.15600  1.0000
  Te  Te2       1.0  0.93600  0.25000  0.17900  1.0000
  Te  Te3       1.0  0.71000  0.25000  0.49700  1.0000
  Te  Te4       1.0  0.29000  0.75000  0.50300  1.0000
  Te  Te5       1.0  0.06400  0.75000  0.82100  1.0000
  Te  Te6       1.0  0.53000  0.25000  0.84400  1.0000
