data_image0
_chemical_formula_structural       Be4Nb6
_chemical_formula_sum              "Be4 Nb6"
_cell_length_a       6.51438
_cell_length_b       6.51438
_cell_length_c       3.36699
_cell_angle_alpha    90
_cell_angle_beta     90
_cell_angle_gamma    90

_space_group_name_H-M_alt    "P 1"
_space_group_IT_number       1

loop_
  _space_group_symop_operation_xyz
  'x, y, z'

loop_
  _atom_site_type_symbol
  _atom_site_label
  _atom_site_symmetry_multiplicity
  _atom_site_fract_x
  _atom_site_fract_y
  _atom_site_fract_z
  _atom_site_occupancy
  Be  Be1       1.0  0.61300  0.11300  0.00000  1.0000
  Be  Be2       1.0  0.11300  0.38700  0.00000  1.0000
  Be  Be3       1.0  0.88700  0.61300  0.00000  1.0000
  Be  Be4       1.0  0.38700  0.88700  0.00000  1.0000
  Nb  Nb1       1.0  0.00000  0.00000  0.00000  1.0000
  Nb  Nb2       1.0  0.50000  0.50000  0.00000  1.0000
  Nb  Nb3       1.0  0.32100  0.17900  0.50000  1.0000
  Nb  Nb4       1.0  0.82100  0.32100  0.50000  1.0000
  Nb  Nb5       1.0  0.17900  0.67900  0.50000  1.0000
  Nb  Nb6       1.0  0.67900  0.82100  0.50000  1.0000
