data_image0
_chemical_formula_structural       Cl2O4Pb2Sb2
_chemical_formula_sum              "Cl2 O4 Pb2 Sb2"
_cell_length_a       5.47667
_cell_length_b       5.6201
_cell_length_c       6.7152
_cell_angle_alpha    65.2625
_cell_angle_beta     90
_cell_angle_gamma    90

_space_group_name_H-M_alt    "P 1"
_space_group_IT_number       1

loop_
  _space_group_symop_operation_xyz
  'x, y, z'

loop_
  _atom_site_type_symbol
  _atom_site_label
  _atom_site_symmetry_multiplicity
  _atom_site_fract_x
  _atom_site_fract_y
  _atom_site_fract_z
  _atom_site_occupancy
  Cl  Cl1       1.0  0.25000  0.25500  0.48900  1.0000
  Cl  Cl2       1.0  0.75000  0.74500  0.51100  1.0000
  O   O1        1.0  0.00000  0.22800  0.00000  1.0000
  O   O2        1.0  0.50000  0.22800  0.00000  1.0000
  O   O3        1.0  0.00000  0.77200  0.00000  1.0000
  O   O4        1.0  0.50000  0.77200  0.00000  1.0000
  Pb  Pb1       1.0  0.75000  0.38000  0.24000  1.0000
  Pb  Pb2       1.0  0.25000  0.62000  0.76000  1.0000
  Sb  Sb1       1.0  0.25000  0.91900  0.16200  1.0000
  Sb  Sb2       1.0  0.75000  0.08090  0.83800  1.0000
