data_image0
_chemical_formula_structural       Mn2Rb4S4
_chemical_formula_sum              "Mn2 Rb4 S4"
_cell_length_a       6.38129
_cell_length_b       7.12881
_cell_length_c       8.13811
_cell_angle_alpha    115.976
_cell_angle_beta     113.083
_cell_angle_gamma    90

_space_group_name_H-M_alt    "P 1"
_space_group_IT_number       1

loop_
  _space_group_symop_operation_xyz
  'x, y, z'

loop_
  _atom_site_type_symbol
  _atom_site_label
  _atom_site_symmetry_multiplicity
  _atom_site_fract_x
  _atom_site_fract_y
  _atom_site_fract_z
  _atom_site_occupancy
  Mn  Mn1       1.0  0.25000  0.00000  0.00000  1.0000
  Mn  Mn2       1.0  0.75000  0.00000  0.00000  1.0000
  Rb  Rb1       1.0  0.64800  0.49200  0.29600  1.0000
  Rb  Rb2       1.0  0.14800  0.80500  0.29600  1.0000
  Rb  Rb3       1.0  0.85200  0.19500  0.70400  1.0000
  Rb  Rb4       1.0  0.35200  0.50800  0.70400  1.0000
  S   S1        1.0  0.09850  0.28300  0.19700  1.0000
  S   S2        1.0  0.59900  0.91400  0.19700  1.0000
  S   S3        1.0  0.40100  0.08570  0.80300  1.0000
  S   S4        1.0  0.90100  0.71700  0.80300  1.0000
