data_image0
_chemical_formula_structural       B6V4
_chemical_formula_sum              "B6 V4"
_cell_length_a       2.97658
_cell_length_b       3.0304
_cell_length_c       9.31494
_cell_angle_alpha    80.6385
_cell_angle_beta     90
_cell_angle_gamma    90

_space_group_name_H-M_alt    "P 1"
_space_group_IT_number       1

loop_
  _space_group_symop_operation_xyz
  'x, y, z'

loop_
  _atom_site_type_symbol
  _atom_site_label
  _atom_site_symmetry_multiplicity
  _atom_site_fract_x
  _atom_site_fract_y
  _atom_site_fract_z
  _atom_site_occupancy
  B   B1        1.0  0.25000  0.97600  0.04720  1.0000
  B   B2        1.0  0.25000  0.88200  0.23500  1.0000
  B   B3        1.0  0.75000  0.83100  0.33800  1.0000
  B   B4        1.0  0.25000  0.16900  0.66200  1.0000
  B   B5        1.0  0.75000  0.11800  0.76500  1.0000
  B   B6        1.0  0.75000  0.02360  0.95300  1.0000
  V   V1        1.0  0.75000  0.42900  0.14100  1.0000
  V   V2        1.0  0.25000  0.29500  0.41000  1.0000
  V   V3        1.0  0.75000  0.70500  0.59000  1.0000
  V   V4        1.0  0.25000  0.57100  0.85900  1.0000
