data_image0
_chemical_formula_structural       Ga4Se6
_chemical_formula_sum              "Ga4 Se6"
_cell_length_a       6.74736
_cell_length_b       6.76247
_cell_length_c       6.82809
_cell_angle_alpha    60.3174
_cell_angle_beta     99.1443
_cell_angle_gamma    108.719

_space_group_name_H-M_alt    "P 1"
_space_group_IT_number       1

loop_
  _space_group_symop_operation_xyz
  'x, y, z'

loop_
  _atom_site_type_symbol
  _atom_site_label
  _atom_site_symmetry_multiplicity
  _atom_site_fract_x
  _atom_site_fract_y
  _atom_site_fract_z
  _atom_site_occupancy
  Ga  Ga1       1.0  0.00349  0.43500  0.16800  1.0000
  Ga  Ga2       1.0  0.00090  0.74100  0.49500  1.0000
  Ga  Ga3       1.0  0.50100  0.23600  0.50500  1.0000
  Ga  Ga4       1.0  0.50300  0.60300  0.83200  1.0000
  Se  Se1       1.0  0.61700  0.27300  0.15900  1.0000
  Se  Se2       1.0  0.14100  0.80600  0.16300  1.0000
  Se  Se3       1.0  0.61300  0.63600  0.48300  1.0000
  Se  Se4       1.0  0.11300  0.11900  0.51700  1.0000
  Se  Se5       1.0  0.64100  0.97000  0.83700  1.0000
  Se  Se6       1.0  0.11700  0.43100  0.84100  1.0000
