data_image0
_chemical_formula_structural       Al8Pu2
_chemical_formula_sum              "Al8 Pu2"
_cell_length_a       4.41569
_cell_length_b       6.21612
_cell_length_c       7.88564
_cell_angle_alpha    113.212
_cell_angle_beta     106.259
_cell_angle_gamma    90

_space_group_name_H-M_alt    "P 1"
_space_group_IT_number       1

loop_
  _space_group_symop_operation_xyz
  'x, y, z'

loop_
  _atom_site_type_symbol
  _atom_site_label
  _atom_site_symmetry_multiplicity
  _atom_site_fract_x
  _atom_site_fract_y
  _atom_site_fract_z
  _atom_site_occupancy
  Al  Al1       1.0  0.50000  0.00000  0.00000  1.0000
  Al  Al2       1.0  0.50000  0.50000  0.00000  1.0000
  Al  Al3       1.0  0.11200  0.36200  0.22300  1.0000
  Al  Al4       1.0  0.69800  0.22300  0.39700  1.0000
  Al  Al5       1.0  0.69800  0.67400  0.39700  1.0000
  Al  Al6       1.0  0.30200  0.32600  0.60300  1.0000
  Al  Al7       1.0  0.30200  0.77700  0.60300  1.0000
  Al  Al8       1.0  0.88800  0.63800  0.77700  1.0000
  Pu  Pu1       1.0  0.11100  0.86100  0.22300  1.0000
  Pu  Pu2       1.0  0.88900  0.13900  0.77700  1.0000
