data_image0
_chemical_formula_structural       Ga6In6S18
_chemical_formula_sum              "Ga6 In6 S18"
_cell_length_a       6.72339
_cell_length_b       6.72339
_cell_length_c       18.1638
_cell_angle_alpha    90
_cell_angle_beta     90
_cell_angle_gamma    120

_space_group_name_H-M_alt    "P 1"
_space_group_IT_number       1

loop_
  _space_group_symop_operation_xyz
  'x, y, z'

loop_
  _atom_site_type_symbol
  _atom_site_label
  _atom_site_symmetry_multiplicity
  _atom_site_fract_x
  _atom_site_fract_y
  _atom_site_fract_z
  _atom_site_occupancy
  Ga  Ga1       1.0  0.66500  0.67500  0.13100  1.0000
  Ga  Ga2       1.0  0.33500  0.32500  0.63100  1.0000
  Ga  Ga3       1.0  0.32500  0.99000  0.46400  1.0000
  Ga  Ga4       1.0  0.00994  0.33500  0.79800  1.0000
  Ga  Ga5       1.0  0.99000  0.66500  0.29800  1.0000
  Ga  Ga6       1.0  0.67500  0.00994  0.96400  1.0000
  In  In1       1.0  0.32500  0.32500  0.99200  1.0000
  In  In2       1.0  0.67500  0.67500  0.49200  1.0000
  In  In3       1.0  0.67500  0.00063  0.32500  1.0000
  In  In4       1.0  0.99900  0.67500  0.65800  1.0000
  In  In5       1.0  0.00063  0.32500  0.15800  1.0000
  In  In6       1.0  0.32500  0.99900  0.82500  1.0000
  S   S1        1.0  0.00800  0.70900  0.17000  1.0000
  S   S2        1.0  0.99200  0.29100  0.67000  1.0000
  S   S3        1.0  0.29100  0.29900  0.50300  1.0000
  S   S4        1.0  0.70100  0.99200  0.83600  1.0000
  S   S5        1.0  0.29900  0.00800  0.33600  1.0000
  S   S6        1.0  0.70900  0.70100  0.00291  1.0000
  S   S7        1.0  0.96400  0.34400  0.01050  1.0000
  S   S8        1.0  0.03620  0.65600  0.51000  1.0000
  S   S9        1.0  0.65600  0.62000  0.34400  1.0000
  S   S10       1.0  0.38000  0.03620  0.67700  1.0000
  S   S11       1.0  0.62000  0.96400  0.17700  1.0000
  S   S12       1.0  0.34400  0.38000  0.84400  1.0000
  S   S13       1.0  0.36200  0.31000  0.13900  1.0000
  S   S14       1.0  0.63800  0.69000  0.63900  1.0000
  S   S15       1.0  0.69000  0.05290  0.47300  1.0000
  S   S16       1.0  0.94700  0.63800  0.80600  1.0000
  S   S17       1.0  0.05290  0.36200  0.30600  1.0000
  S   S18       1.0  0.31000  0.94700  0.97300  1.0000
