data_image0
_chemical_formula_structural       As4Ho4Ni2
_chemical_formula_sum              "As4 Ho4 Ni2"
_cell_length_a       4.09367
_cell_length_b       4.09373
_cell_length_c       14.1198
_cell_angle_alpha    90
_cell_angle_beta     90
_cell_angle_gamma    120

_space_group_name_H-M_alt    "P 1"
_space_group_IT_number       1

loop_
  _space_group_symop_operation_xyz
  'x, y, z'

loop_
  _atom_site_type_symbol
  _atom_site_label
  _atom_site_symmetry_multiplicity
  _atom_site_fract_x
  _atom_site_fract_y
  _atom_site_fract_z
  _atom_site_occupancy
  As  As1       1.0  0.00000  0.00000  0.00000  1.0000
  As  As2       1.0  0.33300  0.66700  0.25000  1.0000
  As  As3       1.0  0.00000  0.00000  0.50000  1.0000
  As  As4       1.0  0.66700  0.33300  0.75000  1.0000
  Ho  Ho1       1.0  0.66700  0.33300  0.11700  1.0000
  Ho  Ho2       1.0  0.66700  0.33300  0.38300  1.0000
  Ho  Ho3       1.0  0.33300  0.66700  0.61700  1.0000
  Ho  Ho4       1.0  0.33300  0.66700  0.88300  1.0000
  Ni  Ni1       1.0  0.00000  0.00000  0.25000  1.0000
  Ni  Ni2       1.0  0.00001  0.00001  0.75000  1.0000
