data_image0
_chemical_formula_structural       B6Re2U2
_chemical_formula_sum              "B6 Re2 U2"
_cell_length_a       5.0704
_cell_length_b       5.07036
_cell_length_c       5.0961
_cell_angle_alpha    90
_cell_angle_beta     90
_cell_angle_gamma    120

_space_group_name_H-M_alt    "P 1"
_space_group_IT_number       1

loop_
  _space_group_symop_operation_xyz
  'x, y, z'

loop_
  _atom_site_type_symbol
  _atom_site_label
  _atom_site_symmetry_multiplicity
  _atom_site_fract_x
  _atom_site_fract_y
  _atom_site_fract_z
  _atom_site_occupancy
  B   B1        1.0  0.44000  0.22000  0.25000  1.0000
  B   B2        1.0  0.78000  0.22000  0.25000  1.0000
  B   B3        1.0  0.78000  0.56000  0.25000  1.0000
  B   B4        1.0  0.22000  0.44000  0.75000  1.0000
  B   B5        1.0  0.22000  0.78000  0.75000  1.0000
  B   B6        1.0  0.56000  0.78000  0.75000  1.0000
  Re  Re1       1.0  0.00000  0.00000  0.00000  1.0000
  Re  Re2       1.0  0.00000  0.00000  0.50000  1.0000
  U   U1        1.0  0.33300  0.66700  0.25000  1.0000
  U   U2        1.0  0.66700  0.33300  0.75000  1.0000
