data_image0
_chemical_formula_structural       As4Rb4Sn2
_chemical_formula_sum              "As4 Rb4 Sn2"
_cell_length_a       7.03398
_cell_length_b       7.53038
_cell_length_c       8.74569
_cell_angle_alpha    115.501
_cell_angle_beta     113.712
_cell_angle_gamma    90

_space_group_name_H-M_alt    "P 1"
_space_group_IT_number       1

loop_
  _space_group_symop_operation_xyz
  'x, y, z'

loop_
  _atom_site_type_symbol
  _atom_site_label
  _atom_site_symmetry_multiplicity
  _atom_site_fract_x
  _atom_site_fract_y
  _atom_site_fract_z
  _atom_site_occupancy
  As  As1       1.0  0.60400  0.42100  0.20700  1.0000
  As  As2       1.0  0.10400  0.78600  0.20700  1.0000
  As  As3       1.0  0.89600  0.21400  0.79300  1.0000
  As  As4       1.0  0.39600  0.57900  0.79300  1.0000
  Rb  Rb1       1.0  0.14600  0.30400  0.29200  1.0000
  Rb  Rb2       1.0  0.64600  0.98800  0.29200  1.0000
  Rb  Rb3       1.0  0.35400  0.01240  0.70800  1.0000
  Rb  Rb4       1.0  0.85400  0.69600  0.70800  1.0000
  Sn  Sn1       1.0  0.25000  0.50000  0.00000  1.0000
  Sn  Sn2       1.0  0.75000  0.50000  0.00000  1.0000
