data_image0
_chemical_formula_structural       Cs4P6
_chemical_formula_sum              "Cs4 P6"
_cell_length_a       6.94935
_cell_length_b       6.94935
_cell_length_c       8.9808
_cell_angle_alpha    111.424
_cell_angle_beta     111.424
_cell_angle_gamma    93.205

_space_group_name_H-M_alt    "P 1"
_space_group_IT_number       1

loop_
  _space_group_symop_operation_xyz
  'x, y, z'

loop_
  _atom_site_type_symbol
  _atom_site_label
  _atom_site_symmetry_multiplicity
  _atom_site_fract_x
  _atom_site_fract_y
  _atom_site_fract_z
  _atom_site_occupancy
  Cs  Cs1       1.0  0.71500  0.28500  0.00000  1.0000
  Cs  Cs2       1.0  0.28500  0.71500  0.00000  1.0000
  Cs  Cs3       1.0  0.75000  0.25000  0.50000  1.0000
  Cs  Cs4       1.0  0.25000  0.75000  0.50000  1.0000
  P   P1        1.0  0.26700  0.26700  0.14200  1.0000
  P   P2        1.0  0.87500  0.87500  0.14200  1.0000
  P   P3        1.0  0.14400  0.14400  0.28700  1.0000
  P   P4        1.0  0.85600  0.85600  0.71300  1.0000
  P   P5        1.0  0.12500  0.12500  0.85800  1.0000
  P   P6        1.0  0.73300  0.73300  0.85800  1.0000
