data_image0
_chemical_formula_structural       Mn2Rb4Te4
_chemical_formula_sum              "Mn2 Rb4 Te4"
_cell_length_a       7.11721
_cell_length_b       7.69849
_cell_length_c       9.03617
_cell_angle_alpha    115.213
_cell_angle_beta     113.192
_cell_angle_gamma    90

_space_group_name_H-M_alt    "P 1"
_space_group_IT_number       1

loop_
  _space_group_symop_operation_xyz
  'x, y, z'

loop_
  _atom_site_type_symbol
  _atom_site_label
  _atom_site_symmetry_multiplicity
  _atom_site_fract_x
  _atom_site_fract_y
  _atom_site_fract_z
  _atom_site_occupancy
  Mn  Mn1       1.0  0.25000  0.00000  0.00000  1.0000
  Mn  Mn2       1.0  0.75000  0.00000  0.00000  1.0000
  Rb  Rb1       1.0  0.64400  0.47200  0.28800  1.0000
  Rb  Rb2       1.0  0.14400  0.81700  0.28800  1.0000
  Rb  Rb3       1.0  0.85600  0.18300  0.71200  1.0000
  Rb  Rb4       1.0  0.35600  0.52800  0.71200  1.0000
  Te  Te1       1.0  0.10300  0.29300  0.20700  1.0000
  Te  Te2       1.0  0.60300  0.91400  0.20700  1.0000
  Te  Te3       1.0  0.39700  0.08610  0.79300  1.0000
  Te  Te4       1.0  0.89700  0.70700  0.79300  1.0000
