data_image0
_chemical_formula_structural       P6Rb4
_chemical_formula_sum              "P6 Rb4"
_cell_length_a       6.65918
_cell_length_b       6.65918
_cell_length_c       8.66367
_cell_angle_alpha    110.875
_cell_angle_beta     110.875
_cell_angle_gamma    94.1764

_space_group_name_H-M_alt    "P 1"
_space_group_IT_number       1

loop_
  _space_group_symop_operation_xyz
  'x, y, z'

loop_
  _atom_site_type_symbol
  _atom_site_label
  _atom_site_symmetry_multiplicity
  _atom_site_fract_x
  _atom_site_fract_y
  _atom_site_fract_z
  _atom_site_occupancy
  P   P1        1.0  0.28000  0.28000  0.14700  1.0000
  P   P2        1.0  0.86700  0.86700  0.14700  1.0000
  P   P3        1.0  0.14800  0.14800  0.29600  1.0000
  P   P4        1.0  0.85200  0.85200  0.70400  1.0000
  P   P5        1.0  0.13300  0.13300  0.85300  1.0000
  P   P6        1.0  0.72000  0.72000  0.85300  1.0000
  Rb  Rb1       1.0  0.72000  0.28000  0.00000  1.0000
  Rb  Rb2       1.0  0.28000  0.72000  0.00000  1.0000
  Rb  Rb3       1.0  0.75000  0.25000  0.50000  1.0000
  Rb  Rb4       1.0  0.25000  0.75000  0.50000  1.0000
