data_image0
_chemical_formula_structural       H4I2Li2O2
_chemical_formula_sum              "H4 I2 Li2 O2"
_cell_length_a       6.26469
_cell_length_b       5.56044
_cell_length_c       4.31534
_cell_angle_alpha    90
_cell_angle_beta     90
_cell_angle_gamma    90.3494

_space_group_name_H-M_alt    "P 1"
_space_group_IT_number       1

loop_
  _space_group_symop_operation_xyz
  'x, y, z'

loop_
  _atom_site_type_symbol
  _atom_site_label
  _atom_site_symmetry_multiplicity
  _atom_site_fract_x
  _atom_site_fract_y
  _atom_site_fract_z
  _atom_site_occupancy
  H   H1        1.0  0.50800  0.10100  0.32100  1.0000
  H   H2        1.0  0.00077  0.39200  0.32100  1.0000
  H   H3        1.0  0.00077  0.39200  0.67900  1.0000
  H   H4        1.0  0.50800  0.10100  0.67900  1.0000
  I   I1        1.0  0.00269  0.00225  0.00000  1.0000
  I   I2        1.0  0.50100  0.49200  0.00000  1.0000
  Li  Li1       1.0  0.75200  0.74400  0.50000  1.0000
  Li  Li2       1.0  0.25200  0.74900  0.50000  1.0000
  O   O1        1.0  0.50600  0.99000  0.50000  1.0000
  O   O2        1.0  0.00088  0.50400  0.50000  1.0000
