data_image0
_chemical_formula_structural       B5Ca2Os3
_chemical_formula_sum              "B5 Ca2 Os3"
_cell_length_a       4.06274
_cell_length_b       5.62108
_cell_length_c       6.96088
_cell_angle_alpha    101.603
_cell_angle_beta     73.0327
_cell_angle_gamma    111.185

_space_group_name_H-M_alt    "P 1"
_space_group_IT_number       1

loop_
  _space_group_symop_operation_xyz
  'x, y, z'

loop_
  _atom_site_type_symbol
  _atom_site_label
  _atom_site_symmetry_multiplicity
  _atom_site_fract_x
  _atom_site_fract_y
  _atom_site_fract_z
  _atom_site_occupancy
  B   B1        1.0  0.48100  0.06140  0.12000  1.0000
  B   B2        1.0  0.64200  0.01650  0.31000  1.0000
  B   B3        1.0  0.28400  0.50000  0.50000  1.0000
  B   B4        1.0  0.93600  0.98300  0.69000  1.0000
  B   B5        1.0  0.54000  0.93900  0.88000  1.0000
  Ca  Ca1       1.0  0.94500  0.55600  0.24000  1.0000
  Ca  Ca2       1.0  0.62900  0.44400  0.76000  1.0000
  Os  Os1       1.0  0.00534  0.00000  0.00000  1.0000
  Os  Os2       1.0  0.13800  0.13500  0.40200  1.0000
  Os  Os3       1.0  0.40500  0.86500  0.59800  1.0000
