data_image0
_chemical_formula_structural       Au2Cd2Cs2S4
_chemical_formula_sum              "Au2 Cd2 Cs2 S4"
_cell_length_a       7.80146
_cell_length_b       6.72369
_cell_length_c       6.14482
_cell_angle_alpha    90
_cell_angle_beta     90
_cell_angle_gamma    115.526

_space_group_name_H-M_alt    "P 1"
_space_group_IT_number       1

loop_
  _space_group_symop_operation_xyz
  'x, y, z'

loop_
  _atom_site_type_symbol
  _atom_site_label
  _atom_site_symmetry_multiplicity
  _atom_site_fract_x
  _atom_site_fract_y
  _atom_site_fract_z
  _atom_site_occupancy
  Au  Au1       1.0  0.00000  0.00000  0.00000  1.0000
  Au  Au2       1.0  0.00000  0.50000  0.00000  1.0000
  Cd  Cd1       1.0  0.00000  0.25000  0.50000  1.0000
  Cd  Cd2       1.0  0.00000  0.75000  0.50000  1.0000
  Cs  Cs1       1.0  0.50000  0.75000  0.23000  1.0000
  Cs  Cs2       1.0  0.50000  0.25000  0.77000  1.0000
  S   S1        1.0  0.21700  0.10800  0.28900  1.0000
  S   S2        1.0  0.78300  0.39200  0.28900  1.0000
  S   S3        1.0  0.21700  0.60800  0.71100  1.0000
  S   S4        1.0  0.78300  0.89200  0.71100  1.0000
