data_image0
_chemical_formula_structural       As4Cs4Sn2
_chemical_formula_sum              "As4 Cs4 Sn2"
_cell_length_a       7.0527
_cell_length_b       7.81633
_cell_length_c       9.09366
_cell_angle_alpha    115.453
_cell_angle_beta     112.817
_cell_angle_gamma    90

_space_group_name_H-M_alt    "P 1"
_space_group_IT_number       1

loop_
  _space_group_symop_operation_xyz
  'x, y, z'

loop_
  _atom_site_type_symbol
  _atom_site_label
  _atom_site_symmetry_multiplicity
  _atom_site_fract_x
  _atom_site_fract_y
  _atom_site_fract_z
  _atom_site_occupancy
  As  As1       1.0  0.59900  0.42300  0.19800  1.0000
  As  As2       1.0  0.09900  0.77500  0.19800  1.0000
  As  As3       1.0  0.90100  0.22500  0.80200  1.0000
  As  As4       1.0  0.40100  0.57700  0.80200  1.0000
  Cs  Cs1       1.0  0.14700  0.30700  0.29400  1.0000
  Cs  Cs2       1.0  0.64700  0.98700  0.29400  1.0000
  Cs  Cs3       1.0  0.35300  0.01290  0.70600  1.0000
  Cs  Cs4       1.0  0.85300  0.69300  0.70600  1.0000
  Sn  Sn1       1.0  0.25000  0.50000  0.00000  1.0000
  Sn  Sn2       1.0  0.75000  0.50000  0.00000  1.0000
