data_image0
_chemical_formula_structural       Fe4Gd4I2
_chemical_formula_sum              "Fe4 Gd4 I2"
_cell_length_a       3.95006
_cell_length_b       3.95008
_cell_length_c       17.3174
_cell_angle_alpha    90
_cell_angle_beta     90
_cell_angle_gamma    120

_space_group_name_H-M_alt    "P 1"
_space_group_IT_number       1

loop_
  _space_group_symop_operation_xyz
  'x, y, z'

loop_
  _atom_site_type_symbol
  _atom_site_label
  _atom_site_symmetry_multiplicity
  _atom_site_fract_x
  _atom_site_fract_y
  _atom_site_fract_z
  _atom_site_occupancy
  Fe  Fe1       1.0  0.33300  0.66700  0.00471  1.0000
  Fe  Fe2       1.0  0.33300  0.66700  0.49500  1.0000
  Fe  Fe3       1.0  0.66700  0.33300  0.50500  1.0000
  Fe  Fe4       1.0  0.66700  0.33300  0.99500  1.0000
  Gd  Gd1       1.0  0.00000  0.00001  0.10700  1.0000
  Gd  Gd2       1.0  0.00000  0.00001  0.39300  1.0000
  Gd  Gd3       1.0  0.00000  0.00000  0.60700  1.0000
  Gd  Gd4       1.0  0.00000  0.00000  0.89300  1.0000
  I   I1        1.0  0.66700  0.33300  0.25000  1.0000
  I   I2        1.0  0.33300  0.66700  0.75000  1.0000
