data_image0
_chemical_formula_structural       B6Er2Mo2
_chemical_formula_sum              "B6 Er2 Mo2"
_cell_length_a       6.80625
_cell_length_b       3.1539
_cell_length_c       5.41014
_cell_angle_alpha    90
_cell_angle_beta     101.733
_cell_angle_gamma    90

_space_group_name_H-M_alt    "P 1"
_space_group_IT_number       1

loop_
  _space_group_symop_operation_xyz
  'x, y, z'

loop_
  _atom_site_type_symbol
  _atom_site_label
  _atom_site_symmetry_multiplicity
  _atom_site_fract_x
  _atom_site_fract_y
  _atom_site_fract_z
  _atom_site_occupancy
  B   B1        1.0  0.99300  0.25000  0.08370  1.0000
  B   B2        1.0  0.99500  0.25000  0.41200  1.0000
  B   B3        1.0  0.47600  0.25000  0.41800  1.0000
  B   B4        1.0  0.52400  0.75000  0.58200  1.0000
  B   B5        1.0  0.00462  0.75000  0.58800  1.0000
  B   B6        1.0  0.00723  0.75000  0.91600  1.0000
  Er  Er1       1.0  0.71000  0.75000  0.17700  1.0000
  Er  Er2       1.0  0.29000  0.25000  0.82300  1.0000
  Mo  Mo1       1.0  0.22000  0.75000  0.31100  1.0000
  Mo  Mo2       1.0  0.78000  0.25000  0.68900  1.0000
