data_image0
_chemical_formula_structural       Ba4Ga2Ge2N2
_chemical_formula_sum              "Ba4 Ga2 Ge2 N2"
_cell_length_a       7.28661
_cell_length_b       4.22727
_cell_length_c       9.34063
_cell_angle_alpha    90
_cell_angle_beta     108.79
_cell_angle_gamma    90

_space_group_name_H-M_alt    "P 1"
_space_group_IT_number       1

loop_
  _space_group_symop_operation_xyz
  'x, y, z'

loop_
  _atom_site_type_symbol
  _atom_site_label
  _atom_site_symmetry_multiplicity
  _atom_site_fract_x
  _atom_site_fract_y
  _atom_site_fract_z
  _atom_site_occupancy
  Ba  Ba1       1.0  0.79600  0.25000  0.03840  1.0000
  Ba  Ba2       1.0  0.18900  0.75000  0.38300  1.0000
  Ba  Ba3       1.0  0.81100  0.25000  0.61700  1.0000
  Ba  Ba4       1.0  0.20400  0.75000  0.96200  1.0000
  Ga  Ga1       1.0  0.46000  0.25000  0.24600  1.0000
  Ga  Ga2       1.0  0.54000  0.75000  0.75400  1.0000
  Ge  Ge1       1.0  0.66000  0.75000  0.29700  1.0000
  Ge  Ge2       1.0  0.34000  0.25000  0.70300  1.0000
  N   N1        1.0  0.18500  0.25000  0.17400  1.0000
  N   N2        1.0  0.81500  0.75000  0.82600  1.0000
