data_image0
_chemical_formula_structural       Na4Pt2S4
_chemical_formula_sum              "Na4 Pt2 S4"
_cell_length_a       3.58049
_cell_length_b       5.51311
_cell_length_c       10.8835
_cell_angle_alpha    90
_cell_angle_beta     90
_cell_angle_gamma    71.0511

_space_group_name_H-M_alt    "P 1"
_space_group_IT_number       1

loop_
  _space_group_symop_operation_xyz
  'x, y, z'

loop_
  _atom_site_type_symbol
  _atom_site_label
  _atom_site_symmetry_multiplicity
  _atom_site_fract_x
  _atom_site_fract_y
  _atom_site_fract_z
  _atom_site_occupancy
  Na  Na1       1.0  0.82800  0.34400  0.09370  1.0000
  Na  Na2       1.0  0.43200  0.13600  0.37700  1.0000
  Na  Na3       1.0  0.17200  0.65600  0.59400  1.0000
  Na  Na4       1.0  0.56800  0.86400  0.87700  1.0000
  Pt  Pt1       1.0  0.13400  0.73200  0.25500  1.0000
  Pt  Pt2       1.0  0.86600  0.26800  0.75500  1.0000
  S   S1        1.0  0.55100  0.89800  0.13600  1.0000
  S   S2        1.0  0.71800  0.56300  0.37200  1.0000
  S   S3        1.0  0.44900  0.10200  0.63600  1.0000
  S   S4        1.0  0.28200  0.43700  0.87200  1.0000
