data_image0
_chemical_formula_structural       Bi2Cl2O4Sr2
_chemical_formula_sum              "Bi2 Cl2 O4 Sr2"
_cell_length_a       5.62666
_cell_length_b       5.72682
_cell_length_c       6.8076
_cell_angle_alpha    65.1263
_cell_angle_beta     90
_cell_angle_gamma    90

_space_group_name_H-M_alt    "P 1"
_space_group_IT_number       1

loop_
  _space_group_symop_operation_xyz
  'x, y, z'

loop_
  _atom_site_type_symbol
  _atom_site_label
  _atom_site_symmetry_multiplicity
  _atom_site_fract_x
  _atom_site_fract_y
  _atom_site_fract_z
  _atom_site_occupancy
  Bi  Bi1       1.0  0.25000  0.91600  0.16700  1.0000
  Bi  Bi2       1.0  0.75000  0.08350  0.83300  1.0000
  Cl  Cl1       1.0  0.25000  0.25500  0.49000  1.0000
  Cl  Cl2       1.0  0.75000  0.74500  0.51000  1.0000
  O   O1        1.0  0.00000  0.23600  0.00000  1.0000
  O   O2        1.0  0.50000  0.23600  0.00000  1.0000
  O   O3        1.0  0.00000  0.76400  0.00000  1.0000
  O   O4        1.0  0.50000  0.76400  0.00000  1.0000
  Sr  Sr1       1.0  0.75000  0.38900  0.22200  1.0000
  Sr  Sr2       1.0  0.25000  0.61100  0.77800  1.0000
