data_image0
_chemical_formula_structural       K4Mn2Te4
_chemical_formula_sum              "K4 Mn2 Te4"
_cell_length_a       6.95584
_cell_length_b       7.47141
_cell_length_c       8.74569
_cell_angle_alpha    115.287
_cell_angle_beta     113.433
_cell_angle_gamma    90

_space_group_name_H-M_alt    "P 1"
_space_group_IT_number       1

loop_
  _space_group_symop_operation_xyz
  'x, y, z'

loop_
  _atom_site_type_symbol
  _atom_site_label
  _atom_site_symmetry_multiplicity
  _atom_site_fract_x
  _atom_site_fract_y
  _atom_site_fract_z
  _atom_site_occupancy
  K   K1        1.0  0.14300  0.46900  0.28600  1.0000
  K   K2        1.0  0.64300  0.81700  0.28600  1.0000
  K   K3        1.0  0.35700  0.18300  0.71400  1.0000
  K   K4        1.0  0.85700  0.53100  0.71400  1.0000
  Mn  Mn1       1.0  0.25000  0.00000  0.00000  1.0000
  Mn  Mn2       1.0  0.75000  0.00000  0.00000  1.0000
  Te  Te1       1.0  0.60800  0.30700  0.21600  1.0000
  Te  Te2       1.0  0.10800  0.90900  0.21600  1.0000
  Te  Te3       1.0  0.89200  0.09110  0.78400  1.0000
  Te  Te4       1.0  0.39200  0.69300  0.78400  1.0000
