data_image0
_chemical_formula_structural       Pd8Se2
_chemical_formula_sum              "Pd8 Se2"
_cell_length_a       5.28144
_cell_length_b       5.28144
_cell_length_c       5.70102
_cell_angle_alpha    90
_cell_angle_beta     90
_cell_angle_gamma    90

_space_group_name_H-M_alt    "P 1"
_space_group_IT_number       1

loop_
  _space_group_symop_operation_xyz
  'x, y, z'

loop_
  _atom_site_type_symbol
  _atom_site_label
  _atom_site_symmetry_multiplicity
  _atom_site_fract_x
  _atom_site_fract_y
  _atom_site_fract_z
  _atom_site_occupancy
  Pd  Pd1       1.0  0.37400  0.23200  0.15400  1.0000
  Pd  Pd2       1.0  0.62600  0.76800  0.15400  1.0000
  Pd  Pd3       1.0  0.87400  0.26800  0.34600  1.0000
  Pd  Pd4       1.0  0.12600  0.73200  0.34600  1.0000
  Pd  Pd5       1.0  0.26800  0.12600  0.65400  1.0000
  Pd  Pd6       1.0  0.73200  0.87400  0.65400  1.0000
  Pd  Pd7       1.0  0.76800  0.37400  0.84600  1.0000
  Pd  Pd8       1.0  0.23200  0.62600  0.84600  1.0000
  Se  Se1       1.0  0.00000  0.00000  0.00000  1.0000
  Se  Se2       1.0  0.50000  0.50000  0.50000  1.0000
