data_image0
_chemical_formula_structural       Pt4Te6
_chemical_formula_sum              "Pt4 Te6"
_cell_length_a       4.04563
_cell_length_b       4.04564
_cell_length_c       17.2381
_cell_angle_alpha    96.7389
_cell_angle_beta     90
_cell_angle_gamma    60

_space_group_name_H-M_alt    "P 1"
_space_group_IT_number       1

loop_
  _space_group_symop_operation_xyz
  'x, y, z'

loop_
  _atom_site_type_symbol
  _atom_site_label
  _atom_site_symmetry_multiplicity
  _atom_site_fract_x
  _atom_site_fract_y
  _atom_site_fract_z
  _atom_site_occupancy
  Pt  Pt1       1.0  0.65200  0.69500  0.04290  1.0000
  Pt  Pt2       1.0  0.55100  0.89800  0.34700  1.0000
  Pt  Pt3       1.0  0.44900  0.10200  0.65300  1.0000
  Pt  Pt4       1.0  0.34800  0.30500  0.95700  1.0000
  Te  Te1       1.0  0.96200  0.07620  0.11400  1.0000
  Te  Te2       1.0  0.24500  0.51100  0.26600  1.0000
  Te  Te3       1.0  0.85800  0.28500  0.42700  1.0000
  Te  Te4       1.0  0.14200  0.71500  0.57300  1.0000
  Te  Te5       1.0  0.75500  0.48900  0.73400  1.0000
  Te  Te6       1.0  0.03810  0.92400  0.88600  1.0000
