data_image0
_chemical_formula_structural       Ta4Te6
_chemical_formula_sum              "Ta4 Te6"
_cell_length_a       3.50975
_cell_length_b       7.71879
_cell_length_c       10.4786
_cell_angle_alpha    90.6347
_cell_angle_beta     99.6409
_cell_angle_gamma    103.141

_space_group_name_H-M_alt    "P 1"
_space_group_IT_number       1

loop_
  _space_group_symop_operation_xyz
  'x, y, z'

loop_
  _atom_site_type_symbol
  _atom_site_label
  _atom_site_symmetry_multiplicity
  _atom_site_fract_x
  _atom_site_fract_y
  _atom_site_fract_z
  _atom_site_occupancy
  Ta  Ta1       1.0  0.56100  0.97700  0.14500  1.0000
  Ta  Ta2       1.0  0.16100  0.93300  0.38900  1.0000
  Ta  Ta3       1.0  0.83900  0.06710  0.61100  1.0000
  Ta  Ta4       1.0  0.43900  0.02260  0.85500  1.0000
  Te  Te1       1.0  0.12900  0.23000  0.02770  1.0000
  Te  Te2       1.0  0.47900  0.67000  0.28800  1.0000
  Te  Te3       1.0  0.79000  0.22000  0.36100  1.0000
  Te  Te4       1.0  0.21000  0.78000  0.63900  1.0000
  Te  Te5       1.0  0.52100  0.33000  0.71200  1.0000
  Te  Te6       1.0  0.87100  0.77000  0.97200  1.0000
