data_image0
_chemical_formula_structural       AgCN
_chemical_formula_sum              "Ag1 C1 N1"
_cell_length_a       3.87539
_cell_length_b       3.87539
_cell_length_c       3.87539
_cell_angle_alpha    101.082
_cell_angle_beta     101.082
_cell_angle_gamma    101.082

_space_group_name_H-M_alt    "P 1"
_space_group_IT_number       1

loop_
  _space_group_symop_operation_xyz
  'x, y, z'

loop_
  _atom_site_type_symbol
  _atom_site_label
  _atom_site_symmetry_multiplicity
  _atom_site_fract_x
  _atom_site_fract_y
  _atom_site_fract_z
  _atom_site_occupancy
  Ag  Ag1       1.0  0.97800  0.97800  0.97800  1.0000
  C   C1        1.0  0.59500  0.59500  0.59500  1.0000
  N   N1        1.0  0.37200  0.37200  0.37200  1.0000
