data_image0
_chemical_formula_structural       K4Mn2Se4
_chemical_formula_sum              "K4 Mn2 Se4"
_cell_length_a       6.52545
_cell_length_b       7.1446
_cell_length_c       8.18642
_cell_angle_alpha    115.872
_cell_angle_beta     113.488
_cell_angle_gamma    90

_space_group_name_H-M_alt    "P 1"
_space_group_IT_number       1

loop_
  _space_group_symop_operation_xyz
  'x, y, z'

loop_
  _atom_site_type_symbol
  _atom_site_label
  _atom_site_symmetry_multiplicity
  _atom_site_fract_x
  _atom_site_fract_y
  _atom_site_fract_z
  _atom_site_occupancy
  K   K1        1.0  0.64500  0.48300  0.29100  1.0000
  K   K2        1.0  0.14500  0.80800  0.29100  1.0000
  K   K3        1.0  0.85500  0.19200  0.70900  1.0000
  K   K4        1.0  0.35500  0.51700  0.70900  1.0000
  Mn  Mn1       1.0  0.25000  0.00000  0.00000  1.0000
  Mn  Mn2       1.0  0.75000  0.00000  0.00000  1.0000
  Se  Se1       1.0  0.10500  0.30100  0.20900  1.0000
  Se  Se2       1.0  0.60500  0.90800  0.20900  1.0000
  Se  Se3       1.0  0.39500  0.09180  0.79100  1.0000
  Se  Se4       1.0  0.89500  0.69900  0.79100  1.0000
