data_image0
_chemical_formula_structural       Ge4Ho4Os2
_chemical_formula_sum              "Ge4 Ho4 Os2"
_cell_length_a       4.29044
_cell_length_b       5.78204
_cell_length_c       9.17552
_cell_angle_alpha    98.605
_cell_angle_beta     103.521
_cell_angle_gamma    68.2218

_space_group_name_H-M_alt    "P 1"
_space_group_IT_number       1

loop_
  _space_group_symop_operation_xyz
  'x, y, z'

loop_
  _atom_site_type_symbol
  _atom_site_label
  _atom_site_symmetry_multiplicity
  _atom_site_fract_x
  _atom_site_fract_y
  _atom_site_fract_z
  _atom_site_occupancy
  Ge  Ge1       1.0  0.48700  0.15000  0.12400  1.0000
  Ge  Ge2       1.0  0.35700  0.72300  0.43800  1.0000
  Ge  Ge3       1.0  0.64300  0.27700  0.56200  1.0000
  Ge  Ge4       1.0  0.51300  0.85000  0.87600  1.0000
  Ho  Ho1       1.0  0.18400  0.74500  0.11400  1.0000
  Ho  Ho2       1.0  0.99600  0.33200  0.32500  1.0000
  Ho  Ho3       1.0  0.00357  0.66800  0.67500  1.0000
  Ho  Ho4       1.0  0.81600  0.25500  0.88600  1.0000
  Os  Os1       1.0  0.73000  0.90900  0.36800  1.0000
  Os  Os2       1.0  0.27000  0.09130  0.63200  1.0000
