data_image0
_chemical_formula_structural       B4V6
_chemical_formula_sum              "B4 V6"
_cell_length_a       5.7113
_cell_length_b       5.7113
_cell_length_c       3.00277
_cell_angle_alpha    90
_cell_angle_beta     90
_cell_angle_gamma    90

_space_group_name_H-M_alt    "P 1"
_space_group_IT_number       1

loop_
  _space_group_symop_operation_xyz
  'x, y, z'

loop_
  _atom_site_type_symbol
  _atom_site_label
  _atom_site_symmetry_multiplicity
  _atom_site_fract_x
  _atom_site_fract_y
  _atom_site_fract_z
  _atom_site_occupancy
  B   B1        1.0  0.61100  0.11100  0.00000  1.0000
  B   B2        1.0  0.11100  0.38900  0.00000  1.0000
  B   B3        1.0  0.88900  0.61100  0.00000  1.0000
  B   B4        1.0  0.38900  0.88900  0.00000  1.0000
  V   V1        1.0  0.00000  0.00000  0.00000  1.0000
  V   V2        1.0  0.50000  0.50000  0.00000  1.0000
  V   V3        1.0  0.32100  0.17900  0.50000  1.0000
  V   V4        1.0  0.82100  0.32100  0.50000  1.0000
  V   V5        1.0  0.17900  0.67900  0.50000  1.0000
  V   V6        1.0  0.67900  0.82100  0.50000  1.0000
