data_image0
_chemical_formula_structural       Co2IrPu
_chemical_formula_sum              "Co2 Ir1 Pu1"
_cell_length_a       4.28353
_cell_length_b       4.28353
_cell_length_c       4.28353
_cell_angle_alpha    59.9952
_cell_angle_beta     59.9952
_cell_angle_gamma    59.9952

_space_group_name_H-M_alt    "P 1"
_space_group_IT_number       1

loop_
  _space_group_symop_operation_xyz
  'x, y, z'

loop_
  _atom_site_type_symbol
  _atom_site_label
  _atom_site_symmetry_multiplicity
  _atom_site_fract_x
  _atom_site_fract_y
  _atom_site_fract_z
  _atom_site_occupancy
  Co  Co1       1.0  0.50000  0.50000  0.50000  1.0000
  Co  Co2       1.0  0.00001  0.00001  0.00001  1.0000
  Ir  Ir1       1.0  0.25000  0.25000  0.25000  1.0000
  Pu  Pu1       1.0  0.75000  0.75000  0.75000  1.0000
