data_image0
_chemical_formula_structural       Cs4P4Si2
_chemical_formula_sum              "Cs4 P4 Si2"
_cell_length_a       6.21987
_cell_length_b       7.57906
_cell_length_c       8.66945
_cell_angle_alpha    115.92
_cell_angle_beta     111.022
_cell_angle_gamma    90

_space_group_name_H-M_alt    "P 1"
_space_group_IT_number       1

loop_
  _space_group_symop_operation_xyz
  'x, y, z'

loop_
  _atom_site_type_symbol
  _atom_site_label
  _atom_site_symmetry_multiplicity
  _atom_site_fract_x
  _atom_site_fract_y
  _atom_site_fract_z
  _atom_site_occupancy
  Cs  Cs1       1.0  0.14700  0.31500  0.29400  1.0000
  Cs  Cs2       1.0  0.64700  0.97800  0.29400  1.0000
  Cs  Cs3       1.0  0.35300  0.02170  0.70600  1.0000
  Cs  Cs4       1.0  0.85300  0.68500  0.70600  1.0000
  P   P1        1.0  0.58700  0.43700  0.17500  1.0000
  P   P2        1.0  0.08740  0.73800  0.17500  1.0000
  P   P3        1.0  0.91300  0.26200  0.82500  1.0000
  P   P4        1.0  0.41300  0.56300  0.82500  1.0000
  Si  Si1       1.0  0.25000  0.50000  0.00000  1.0000
  Si  Si2       1.0  0.75000  0.50000  0.00000  1.0000
