data_image0
_chemical_formula_structural       Na4Pd2S4
_chemical_formula_sum              "Na4 Pd2 S4"
_cell_length_a       3.57804
_cell_length_b       5.50329
_cell_length_c       10.8837
_cell_angle_alpha    90
_cell_angle_beta     90
_cell_angle_gamma    71.0295

_space_group_name_H-M_alt    "P 1"
_space_group_IT_number       1

loop_
  _space_group_symop_operation_xyz
  'x, y, z'

loop_
  _atom_site_type_symbol
  _atom_site_label
  _atom_site_symmetry_multiplicity
  _atom_site_fract_x
  _atom_site_fract_y
  _atom_site_fract_z
  _atom_site_occupancy
  Na  Na1       1.0  0.82700  0.34600  0.08880  1.0000
  Na  Na2       1.0  0.43200  0.13700  0.37600  1.0000
  Na  Na3       1.0  0.17300  0.65400  0.58900  1.0000
  Na  Na4       1.0  0.56800  0.86300  0.87600  1.0000
  Pd  Pd1       1.0  0.13400  0.73200  0.25100  1.0000
  Pd  Pd2       1.0  0.86600  0.26800  0.75100  1.0000
  S   S1        1.0  0.54700  0.90600  0.13400  1.0000
  S   S2        1.0  0.71900  0.56100  0.37000  1.0000
  S   S3        1.0  0.45300  0.09390  0.63400  1.0000
  S   S4        1.0  0.28100  0.43900  0.87000  1.0000
