data_image0
_chemical_formula_structural       Ni6Te4
_chemical_formula_sum              "Ni6 Te4"
_cell_length_a       7.53035
_cell_length_b       3.79863
_cell_length_c       6.11663
_cell_angle_alpha    90
_cell_angle_beta     91.328
_cell_angle_gamma    90

_space_group_name_H-M_alt    "P 1"
_space_group_IT_number       1

loop_
  _space_group_symop_operation_xyz
  'x, y, z'

loop_
  _atom_site_type_symbol
  _atom_site_label
  _atom_site_symmetry_multiplicity
  _atom_site_fract_x
  _atom_site_fract_y
  _atom_site_fract_z
  _atom_site_occupancy
  Ni  Ni1       1.0  0.12400  0.75000  0.00579  1.0000
  Ni  Ni2       1.0  0.37200  0.25000  0.00587  1.0000
  Ni  Ni3       1.0  0.63500  0.25000  0.29300  1.0000
  Ni  Ni4       1.0  0.36500  0.75000  0.70700  1.0000
  Ni  Ni5       1.0  0.62800  0.75000  0.99400  1.0000
  Ni  Ni6       1.0  0.87600  0.25000  0.99400  1.0000
  Te  Te1       1.0  0.88100  0.75000  0.28100  1.0000
  Te  Te2       1.0  0.38100  0.75000  0.28700  1.0000
  Te  Te3       1.0  0.61900  0.25000  0.71300  1.0000
  Te  Te4       1.0  0.11900  0.25000  0.71900  1.0000
