data_image0
_chemical_formula_structural       Pd2Se4Tl4
_chemical_formula_sum              "Pd2 Se4 Tl4"
_cell_length_a       11.4648
_cell_length_b       6.11097
_cell_length_c       3.73868
_cell_angle_alpha    90
_cell_angle_beta     90
_cell_angle_gamma    90

_space_group_name_H-M_alt    "P 1"
_space_group_IT_number       1

loop_
  _space_group_symop_operation_xyz
  'x, y, z'

loop_
  _atom_site_type_symbol
  _atom_site_label
  _atom_site_symmetry_multiplicity
  _atom_site_fract_x
  _atom_site_fract_y
  _atom_site_fract_z
  _atom_site_occupancy
  Pd  Pd1       1.0  0.00000  0.00000  0.00000  1.0000
  Pd  Pd2       1.0  0.50000  0.50000  0.00000  1.0000
  Se  Se1       1.0  0.11200  0.17800  0.50000  1.0000
  Se  Se2       1.0  0.61200  0.32200  0.50000  1.0000
  Se  Se3       1.0  0.38800  0.67800  0.50000  1.0000
  Se  Se4       1.0  0.88800  0.82200  0.50000  1.0000
  Tl  Tl1       1.0  0.34700  0.11200  0.00000  1.0000
  Tl  Tl2       1.0  0.84700  0.38800  0.00000  1.0000
  Tl  Tl3       1.0  0.15300  0.61200  0.00000  1.0000
  Tl  Tl4       1.0  0.65300  0.88800  0.00000  1.0000
