data_image0
_chemical_formula_structural       Br2H2K4O2
_chemical_formula_sum              "Br2 H2 K4 O2"
_cell_length_a       6.7534
_cell_length_b       4.26928
_cell_length_c       8.44171
_cell_angle_alpha    90
_cell_angle_beta     108.05
_cell_angle_gamma    90

_space_group_name_H-M_alt    "P 1"
_space_group_IT_number       1

loop_
  _space_group_symop_operation_xyz
  'x, y, z'

loop_
  _atom_site_type_symbol
  _atom_site_label
  _atom_site_symmetry_multiplicity
  _atom_site_fract_x
  _atom_site_fract_y
  _atom_site_fract_z
  _atom_site_occupancy
  Br  Br1       1.0  0.18200  0.25000  0.30000  1.0000
  Br  Br2       1.0  0.81800  0.75000  0.70000  1.0000
  H   H1        1.0  0.83600  0.75000  0.21100  1.0000
  H   H2        1.0  0.16400  0.25000  0.78900  1.0000
  K   K1        1.0  0.29000  0.75000  0.03580  1.0000
  K   K2        1.0  0.70700  0.25000  0.38400  1.0000
  K   K3        1.0  0.29300  0.75000  0.61600  1.0000
  K   K4        1.0  0.71000  0.25000  0.96400  1.0000
  O   O1        1.0  0.68400  0.75000  0.17200  1.0000
  O   O2        1.0  0.31600  0.25000  0.82800  1.0000
