data_image0
_chemical_formula_structural       Mo4S4Sb2
_chemical_formula_sum              "Mo4 S4 Sb2"
_cell_length_a       6.59367
_cell_length_b       3.1997
_cell_length_c       9.47156
_cell_angle_alpha    90
_cell_angle_beta     105.729
_cell_angle_gamma    90

_space_group_name_H-M_alt    "P 1"
_space_group_IT_number       1

loop_
  _space_group_symop_operation_xyz
  'x, y, z'

loop_
  _atom_site_type_symbol
  _atom_site_label
  _atom_site_symmetry_multiplicity
  _atom_site_fract_x
  _atom_site_fract_y
  _atom_site_fract_z
  _atom_site_occupancy
  Mo  Mo1       1.0  0.10600  0.75000  0.11500  1.0000
  Mo  Mo2       1.0  0.66200  0.25000  0.48000  1.0000
  Mo  Mo3       1.0  0.33800  0.75000  0.52000  1.0000
  Mo  Mo4       1.0  0.89400  0.25000  0.88500  1.0000
  S   S1        1.0  0.73800  0.75000  0.00961  1.0000
  S   S2        1.0  0.47400  0.75000  0.31000  1.0000
  S   S3        1.0  0.52600  0.25000  0.69000  1.0000
  S   S4        1.0  0.26200  0.25000  0.99000  1.0000
  Sb  Sb1       1.0  0.99700  0.25000  0.33900  1.0000
  Sb  Sb2       1.0  0.00289  0.75000  0.66100  1.0000
