data_image0
_chemical_formula_structural       Ba2Bi2I2O4
_chemical_formula_sum              "Ba2 Bi2 I2 O4"
_cell_length_a       5.8815
_cell_length_b       6.10397
_cell_length_c       7.64532
_cell_angle_alpha    66.472
_cell_angle_beta     90
_cell_angle_gamma    90

_space_group_name_H-M_alt    "P 1"
_space_group_IT_number       1

loop_
  _space_group_symop_operation_xyz
  'x, y, z'

loop_
  _atom_site_type_symbol
  _atom_site_label
  _atom_site_symmetry_multiplicity
  _atom_site_fract_x
  _atom_site_fract_y
  _atom_site_fract_z
  _atom_site_occupancy
  Ba  Ba1       1.0  0.75000  0.39600  0.20800  1.0000
  Ba  Ba2       1.0  0.25000  0.60400  0.79200  1.0000
  Bi  Bi1       1.0  0.25000  0.93000  0.14100  1.0000
  Bi  Bi2       1.0  0.75000  0.07040  0.85900  1.0000
  I   I1        1.0  0.25000  0.25200  0.49600  1.0000
  I   I2        1.0  0.75000  0.74800  0.50400  1.0000
  O   O1        1.0  0.00000  0.22400  0.00000  1.0000
  O   O2        1.0  0.50000  0.22400  0.00000  1.0000
  O   O3        1.0  0.00000  0.77600  0.00000  1.0000
  O   O4        1.0  0.50000  0.77600  0.00000  1.0000
