data_image0
_chemical_formula_structural       Bi2Br2O4Sr2
_chemical_formula_sum              "Bi2 Br2 O4 Sr2"
_cell_length_a       5.68256
_cell_length_b       5.78528
_cell_length_c       7.0064
_cell_angle_alpha    65.6156
_cell_angle_beta     90
_cell_angle_gamma    90

_space_group_name_H-M_alt    "P 1"
_space_group_IT_number       1

loop_
  _space_group_symop_operation_xyz
  'x, y, z'

loop_
  _atom_site_type_symbol
  _atom_site_label
  _atom_site_symmetry_multiplicity
  _atom_site_fract_x
  _atom_site_fract_y
  _atom_site_fract_z
  _atom_site_occupancy
  Bi  Bi1       1.0  0.25000  0.92000  0.16100  1.0000
  Bi  Bi2       1.0  0.75000  0.08030  0.83900  1.0000
  Br  Br1       1.0  0.25000  0.25400  0.49200  1.0000
  Br  Br2       1.0  0.75000  0.74600  0.50800  1.0000
  O   O1        1.0  0.00000  0.23500  0.00000  1.0000
  O   O2        1.0  0.50000  0.23500  0.00000  1.0000
  O   O3        1.0  0.00000  0.76500  0.00000  1.0000
  O   O4        1.0  0.50000  0.76500  0.00000  1.0000
  Sr  Sr1       1.0  0.75000  0.39500  0.21000  1.0000
  Sr  Sr2       1.0  0.25000  0.60500  0.79000  1.0000
