data_image0
_chemical_formula_structural       Ag2S6Ta2
_chemical_formula_sum              "Ag2 S6 Ta2"
_cell_length_a       3.38486
_cell_length_b       7.34196
_cell_length_c       7.78289
_cell_angle_alpha    90
_cell_angle_beta     90
_cell_angle_gamma    76.6726

_space_group_name_H-M_alt    "P 1"
_space_group_IT_number       1

loop_
  _space_group_symop_operation_xyz
  'x, y, z'

loop_
  _atom_site_type_symbol
  _atom_site_label
  _atom_site_symmetry_multiplicity
  _atom_site_fract_x
  _atom_site_fract_y
  _atom_site_fract_z
  _atom_site_occupancy
  Ag  Ag1       1.0  0.00296  0.99400  0.24400  1.0000
  Ag  Ag2       1.0  0.99700  0.00593  0.74400  1.0000
  S   S1        1.0  0.32600  0.34700  0.16900  1.0000
  S   S2        1.0  0.67400  0.65200  0.30900  1.0000
  S   S3        1.0  0.89600  0.20800  0.48900  1.0000
  S   S4        1.0  0.67400  0.65300  0.66900  1.0000
  S   S5        1.0  0.32600  0.34800  0.80900  1.0000
  S   S6        1.0  0.10400  0.79200  0.98900  1.0000
  Ta  Ta1       1.0  0.26300  0.47400  0.48900  1.0000
  Ta  Ta2       1.0  0.73700  0.52600  0.98900  1.0000
