data_image0
_chemical_formula_structural       O6Pb2S2
_chemical_formula_sum              "O6 Pb2 S2"
_cell_length_a       4.49848
_cell_length_b       5.32186
_cell_length_c       6.31316
_cell_angle_alpha    90
_cell_angle_beta     105.795
_cell_angle_gamma    90

_space_group_name_H-M_alt    "P 1"
_space_group_IT_number       1

loop_
  _space_group_symop_operation_xyz
  'x, y, z'

loop_
  _atom_site_type_symbol
  _atom_site_label
  _atom_site_symmetry_multiplicity
  _atom_site_fract_x
  _atom_site_fract_y
  _atom_site_fract_z
  _atom_site_occupancy
  O   O1        1.0  0.73300  0.75000  0.13500  1.0000
  O   O2        1.0  0.19900  0.52200  0.32700  1.0000
  O   O3        1.0  0.19900  0.97800  0.32700  1.0000
  O   O4        1.0  0.80100  0.02220  0.67300  1.0000
  O   O5        1.0  0.80100  0.47800  0.67300  1.0000
  O   O6        1.0  0.26700  0.25000  0.86500  1.0000
  Pb  Pb1       1.0  0.64900  0.25000  0.27700  1.0000
  Pb  Pb2       1.0  0.35100  0.75000  0.72300  1.0000
  S   S1        1.0  0.08670  0.75000  0.17300  1.0000
  S   S2        1.0  0.91300  0.25000  0.82700  1.0000
