data_image0
_chemical_formula_structural       K4Mn2S4
_chemical_formula_sum              "K4 Mn2 S4"
_cell_length_a       6.26311
_cell_length_b       6.91281
_cell_length_c       7.84106
_cell_angle_alpha    116.155
_cell_angle_beta     113.539
_cell_angle_gamma    90

_space_group_name_H-M_alt    "P 1"
_space_group_IT_number       1

loop_
  _space_group_symop_operation_xyz
  'x, y, z'

loop_
  _atom_site_type_symbol
  _atom_site_label
  _atom_site_symmetry_multiplicity
  _atom_site_fract_x
  _atom_site_fract_y
  _atom_site_fract_z
  _atom_site_occupancy
  K   K1        1.0  0.64700  0.49100  0.29400  1.0000
  K   K2        1.0  0.14700  0.80300  0.29400  1.0000
  K   K3        1.0  0.85300  0.19700  0.70600  1.0000
  K   K4        1.0  0.35300  0.50900  0.70600  1.0000
  Mn  Mn1       1.0  0.25000  0.00000  0.00000  1.0000
  Mn  Mn2       1.0  0.75000  0.00000  0.00000  1.0000
  S   S1        1.0  0.10200  0.29600  0.20500  1.0000
  S   S2        1.0  0.60200  0.90800  0.20500  1.0000
  S   S3        1.0  0.39800  0.09160  0.79500  1.0000
  S   S4        1.0  0.89800  0.70400  0.79500  1.0000
