data_image0
_chemical_formula_structural       Cr6Ge2N2
_chemical_formula_sum              "Cr6 Ge2 N2"
_cell_length_a       5.29388
_cell_length_b       5.29388
_cell_length_c       3.98306
_cell_angle_alpha    90
_cell_angle_beta     90
_cell_angle_gamma    90

_space_group_name_H-M_alt    "P 1"
_space_group_IT_number       1

loop_
  _space_group_symop_operation_xyz
  'x, y, z'

loop_
  _atom_site_type_symbol
  _atom_site_label
  _atom_site_symmetry_multiplicity
  _atom_site_fract_x
  _atom_site_fract_y
  _atom_site_fract_z
  _atom_site_occupancy
  Cr  Cr1       1.0  0.79200  0.29200  0.08100  1.0000
  Cr  Cr2       1.0  0.20800  0.70800  0.08100  1.0000
  Cr  Cr3       1.0  0.00000  0.00000  0.50000  1.0000
  Cr  Cr4       1.0  0.50000  0.50000  0.50000  1.0000
  Cr  Cr5       1.0  0.29200  0.20800  0.91900  1.0000
  Cr  Cr6       1.0  0.70800  0.79200  0.91900  1.0000
  Ge  Ge1       1.0  0.50000  0.00000  0.44300  1.0000
  Ge  Ge2       1.0  0.00000  0.50000  0.55700  1.0000
  N   N1        1.0  0.00000  0.00000  0.00000  1.0000
  N   N2        1.0  0.50000  0.50000  0.00000  1.0000
