data_image0
_chemical_formula_structural       Au2Cs2Se6
_chemical_formula_sum              "Au2 Cs2 Se6"
_cell_length_a       6.62843
_cell_length_b       7.636
_cell_length_c       7.68936
_cell_angle_alpha    99.4104
_cell_angle_beta     112.131
_cell_angle_gamma    64.2767

_space_group_name_H-M_alt    "P 1"
_space_group_IT_number       1

loop_
  _space_group_symop_operation_xyz
  'x, y, z'

loop_
  _atom_site_type_symbol
  _atom_site_label
  _atom_site_symmetry_multiplicity
  _atom_site_fract_x
  _atom_site_fract_y
  _atom_site_fract_z
  _atom_site_occupancy
  Au  Au1       1.0  0.42400  0.15100  0.25000  1.0000
  Au  Au2       1.0  0.57600  0.84900  0.75000  1.0000
  Cs  Cs1       1.0  0.14700  0.70500  0.25000  1.0000
  Cs  Cs2       1.0  0.85300  0.29500  0.75000  1.0000
  Se  Se1       1.0  0.62600  0.17700  0.05220  1.0000
  Se  Se2       1.0  0.80400  0.39200  0.25000  1.0000
  Se  Se3       1.0  0.19700  0.17700  0.44800  1.0000
  Se  Se4       1.0  0.80300  0.82300  0.55200  1.0000
  Se  Se5       1.0  0.19600  0.60800  0.75000  1.0000
  Se  Se6       1.0  0.37400  0.82300  0.94800  1.0000
