data_image0
_chemical_formula_structural       Ge6Ni2Y2
_chemical_formula_sum              "Ge6 Ni2 Y2"
_cell_length_a       4.10526
_cell_length_b       4.09243
_cell_length_c       11.0473
_cell_angle_alpha    90
_cell_angle_beta     100.708
_cell_angle_gamma    90

_space_group_name_H-M_alt    "P 1"
_space_group_IT_number       1

loop_
  _space_group_symop_operation_xyz
  'x, y, z'

loop_
  _atom_site_type_symbol
  _atom_site_label
  _atom_site_symmetry_multiplicity
  _atom_site_fract_x
  _atom_site_fract_y
  _atom_site_fract_z
  _atom_site_occupancy
  Ge  Ge1       1.0  0.55700  0.50000  0.11400  1.0000
  Ge  Ge2       1.0  0.05730  0.00000  0.11500  1.0000
  Ge  Ge3       1.0  0.71600  0.00000  0.43300  1.0000
  Ge  Ge4       1.0  0.28400  0.00000  0.56700  1.0000
  Ge  Ge5       1.0  0.94300  0.00000  0.88500  1.0000
  Ge  Ge6       1.0  0.44300  0.50000  0.88600  1.0000
  Ni  Ni1       1.0  0.61000  0.00000  0.22100  1.0000
  Ni  Ni2       1.0  0.39000  0.00000  0.77900  1.0000
  Y   Y1        1.0  0.16900  0.50000  0.33800  1.0000
  Y   Y2        1.0  0.83100  0.50000  0.66200  1.0000
