data_image0
_chemical_formula_structural       Er4Pb2Pd4
_chemical_formula_sum              "Er4 Pb2 Pd4"
_cell_length_a       7.79941
_cell_length_b       7.79941
_cell_length_c       3.61854
_cell_angle_alpha    90
_cell_angle_beta     90
_cell_angle_gamma    90

_space_group_name_H-M_alt    "P 1"
_space_group_IT_number       1

loop_
  _space_group_symop_operation_xyz
  'x, y, z'

loop_
  _atom_site_type_symbol
  _atom_site_label
  _atom_site_symmetry_multiplicity
  _atom_site_fract_x
  _atom_site_fract_y
  _atom_site_fract_z
  _atom_site_occupancy
  Er  Er1       1.0  0.33100  0.16900  0.50000  1.0000
  Er  Er2       1.0  0.83100  0.33100  0.50000  1.0000
  Er  Er3       1.0  0.16900  0.66900  0.50000  1.0000
  Er  Er4       1.0  0.66900  0.83100  0.50000  1.0000
  Pb  Pb1       1.0  0.00000  0.00000  0.00000  1.0000
  Pb  Pb2       1.0  0.50000  0.50000  0.00000  1.0000
  Pd  Pd1       1.0  0.62700  0.12700  0.00000  1.0000
  Pd  Pd2       1.0  0.12700  0.37300  0.00000  1.0000
  Pd  Pd3       1.0  0.87300  0.62700  0.00000  1.0000
  Pd  Pd4       1.0  0.37300  0.87300  0.00000  1.0000
