data_image0
_chemical_formula_structural       Bi2Ca2Cl2O4
_chemical_formula_sum              "Bi2 Ca2 Cl2 O4"
_cell_length_a       7.75299
_cell_length_b       4.13099
_cell_length_c       6.35504
_cell_angle_alpha    90
_cell_angle_beta     105.256
_cell_angle_gamma    90

_space_group_name_H-M_alt    "P 1"
_space_group_IT_number       1

loop_
  _space_group_symop_operation_xyz
  'x, y, z'

loop_
  _atom_site_type_symbol
  _atom_site_label
  _atom_site_symmetry_multiplicity
  _atom_site_fract_x
  _atom_site_fract_y
  _atom_site_fract_z
  _atom_site_occupancy
  Bi  Bi1       1.0  0.59100  0.25000  0.31800  1.0000
  Bi  Bi2       1.0  0.40900  0.75000  0.68200  1.0000
  Ca  Ca1       1.0  0.07810  0.25000  0.32700  1.0000
  Ca  Ca2       1.0  0.92200  0.75000  0.67300  1.0000
  Cl  Cl1       1.0  0.81600  0.75000  0.05760  1.0000
  Cl  Cl2       1.0  0.18400  0.25000  0.94200  1.0000
  O   O1        1.0  0.59800  0.75000  0.47100  1.0000
  O   O2        1.0  0.14400  0.75000  0.49000  1.0000
  O   O3        1.0  0.85600  0.25000  0.51000  1.0000
  O   O4        1.0  0.40200  0.25000  0.52900  1.0000
