data_image0
_chemical_formula_structural       Ge4Ru2Tb4
_chemical_formula_sum              "Ge4 Ru2 Tb4"
_cell_length_a       4.30153
_cell_length_b       5.82748
_cell_length_c       9.27251
_cell_angle_alpha    97.9695
_cell_angle_beta     103.412
_cell_angle_gamma    68.3416

_space_group_name_H-M_alt    "P 1"
_space_group_IT_number       1

loop_
  _space_group_symop_operation_xyz
  'x, y, z'

loop_
  _atom_site_type_symbol
  _atom_site_label
  _atom_site_symmetry_multiplicity
  _atom_site_fract_x
  _atom_site_fract_y
  _atom_site_fract_z
  _atom_site_occupancy
  Ge  Ge1       1.0  0.14600  0.77300  0.06420  1.0000
  Ge  Ge2       1.0  0.01060  0.35400  0.37500  1.0000
  Ge  Ge3       1.0  0.98900  0.64600  0.62500  1.0000
  Ge  Ge4       1.0  0.85400  0.22700  0.93600  1.0000
  Ru  Ru1       1.0  0.77100  0.58600  0.12800  1.0000
  Ru  Ru2       1.0  0.22900  0.41400  0.87200  1.0000
  Tb  Tb1       1.0  0.50200  0.16900  0.17400  1.0000
  Tb  Tb2       1.0  0.31600  0.75700  0.38800  1.0000
  Tb  Tb3       1.0  0.68400  0.24300  0.61200  1.0000
  Tb  Tb4       1.0  0.49800  0.83100  0.82600  1.0000
