data_image0
_chemical_formula_structural       Al2Gd4Ge4
_chemical_formula_sum              "Al2 Gd4 Ge4"
_cell_length_a       5.70574
_cell_length_b       5.82701
_cell_length_c       7.78766
_cell_angle_alpha    102.782
_cell_angle_beta     90
_cell_angle_gamma    119.314

_space_group_name_H-M_alt    "P 1"
_space_group_IT_number       1

loop_
  _space_group_symop_operation_xyz
  'x, y, z'

loop_
  _atom_site_type_symbol
  _atom_site_label
  _atom_site_symmetry_multiplicity
  _atom_site_fract_x
  _atom_site_fract_y
  _atom_site_fract_z
  _atom_site_occupancy
  Al  Al1       1.0  0.83600  0.00000  0.25000  1.0000
  Al  Al2       1.0  0.16400  0.00000  0.75000  1.0000
  Gd  Gd1       1.0  0.51500  0.28900  0.14700  1.0000
  Gd  Gd2       1.0  0.22500  0.71100  0.35300  1.0000
  Gd  Gd3       1.0  0.77500  0.28900  0.64700  1.0000
  Gd  Gd4       1.0  0.48500  0.71100  0.85300  1.0000
  Ge  Ge1       1.0  0.99100  0.72300  0.00158  1.0000
  Ge  Ge2       1.0  0.26800  0.27700  0.49800  1.0000
  Ge  Ge3       1.0  0.73200  0.72300  0.50200  1.0000
  Ge  Ge4       1.0  0.00890  0.27700  0.99800  1.0000
