data_image0
_chemical_formula_structural       AgAuCl6Cs2
_chemical_formula_sum              "Ag1 Au1 Cl6 Cs2"
_cell_length_a       7.36704
_cell_length_b       7.36704
_cell_length_c       7.65137
_cell_angle_alpha    118.778
_cell_angle_beta     118.778
_cell_angle_gamma    90

_space_group_name_H-M_alt    "P 1"
_space_group_IT_number       1

loop_
  _space_group_symop_operation_xyz
  'x, y, z'

loop_
  _atom_site_type_symbol
  _atom_site_label
  _atom_site_symmetry_multiplicity
  _atom_site_fract_x
  _atom_site_fract_y
  _atom_site_fract_z
  _atom_site_occupancy
  Ag  Ag1       1.0  0.50000  0.50000  0.00000  1.0000
  Au  Au1       1.0  0.00000  0.00000  0.00000  1.0000
  Cl  Cl1       1.0  0.22700  0.22700  0.00000  1.0000
  Cl  Cl2       1.0  0.77300  0.22700  0.00000  1.0000
  Cl  Cl3       1.0  0.22700  0.77300  0.00000  1.0000
  Cl  Cl4       1.0  0.77300  0.77300  0.00000  1.0000
  Cl  Cl5       1.0  0.71300  0.71300  0.42700  1.0000
  Cl  Cl6       1.0  0.28700  0.28700  0.57300  1.0000
  Cs  Cs1       1.0  0.75000  0.25000  0.50000  1.0000
  Cs  Cs2       1.0  0.25000  0.75000  0.50000  1.0000
