data_image0
_chemical_formula_structural       Mo2P8
_chemical_formula_sum              "Mo2 P8"
_cell_length_a       5.33652
_cell_length_b       5.84761
_cell_length_c       6.20465
_cell_angle_alpha    98.7537
_cell_angle_beta     64.5297
_cell_angle_gamma    110.725

_space_group_name_H-M_alt    "P 1"
_space_group_IT_number       1

loop_
  _space_group_symop_operation_xyz
  'x, y, z'

loop_
  _atom_site_type_symbol
  _atom_site_label
  _atom_site_symmetry_multiplicity
  _atom_site_fract_x
  _atom_site_fract_y
  _atom_site_fract_z
  _atom_site_occupancy
  Mo  Mo1       1.0  0.94100  0.75000  0.11800  1.0000
  Mo  Mo2       1.0  0.05900  0.25000  0.88200  1.0000
  P   P1        1.0  0.18500  0.18400  0.18900  1.0000
  P   P2        1.0  0.62700  0.31600  0.18900  1.0000
  P   P3        1.0  0.05530  0.68900  0.44400  1.0000
  P   P4        1.0  0.50100  0.81100  0.44400  1.0000
  P   P5        1.0  0.49900  0.18900  0.55600  1.0000
  P   P6        1.0  0.94500  0.31100  0.55600  1.0000
  P   P7        1.0  0.37300  0.68400  0.81100  1.0000
  P   P8        1.0  0.81500  0.81600  0.81100  1.0000
