data_image0
_chemical_formula_structural       C2Cl2O4Pb2
_chemical_formula_sum              "C2 Cl2 O4 Pb2"
_cell_length_a       4.14772
_cell_length_b       4.14772
_cell_length_c       9.44514
_cell_angle_alpha    94.1262
_cell_angle_beta     85.8738
_cell_angle_gamma    90.5605

_space_group_name_H-M_alt    "P 1"
_space_group_IT_number       1

loop_
  _space_group_symop_operation_xyz
  'x, y, z'

loop_
  _atom_site_type_symbol
  _atom_site_label
  _atom_site_symmetry_multiplicity
  _atom_site_fract_x
  _atom_site_fract_y
  _atom_site_fract_z
  _atom_site_occupancy
  C   C1        1.0  0.36800  0.36800  0.50000  1.0000
  C   C2        1.0  0.63200  0.63200  0.50000  1.0000
  Cl  Cl1       1.0  0.72900  0.27100  0.11500  1.0000
  Cl  Cl2       1.0  0.27100  0.72900  0.88500  1.0000
  O   O1        1.0  0.21000  0.32600  0.39000  1.0000
  O   O2        1.0  0.67400  0.79000  0.39000  1.0000
  O   O3        1.0  0.32600  0.21000  0.61000  1.0000
  O   O4        1.0  0.79000  0.67400  0.61000  1.0000
  Pb  Pb1       1.0  0.22600  0.77400  0.22100  1.0000
  Pb  Pb2       1.0  0.77400  0.22600  0.77900  1.0000
