data_image0
_chemical_formula_structural       Ga6Ti4
_chemical_formula_sum              "Ga6 Ti4"
_cell_length_a       6.27477
_cell_length_b       6.27477
_cell_length_c       3.99052
_cell_angle_alpha    90
_cell_angle_beta     90
_cell_angle_gamma    90

_space_group_name_H-M_alt    "P 1"
_space_group_IT_number       1

loop_
  _space_group_symop_operation_xyz
  'x, y, z'

loop_
  _atom_site_type_symbol
  _atom_site_label
  _atom_site_symmetry_multiplicity
  _atom_site_fract_x
  _atom_site_fract_y
  _atom_site_fract_z
  _atom_site_occupancy
  Ga  Ga1       1.0  0.00000  0.00000  0.00000  1.0000
  Ga  Ga2       1.0  0.60400  0.18300  0.00000  1.0000
  Ga  Ga3       1.0  0.18300  0.39600  0.00000  1.0000
  Ga  Ga4       1.0  0.81700  0.60400  0.00000  1.0000
  Ga  Ga5       1.0  0.39600  0.81700  0.00000  1.0000
  Ga  Ga6       1.0  0.50000  0.50000  0.50000  1.0000
  Ti  Ti1       1.0  0.30300  0.12600  0.50000  1.0000
  Ti  Ti2       1.0  0.87400  0.30300  0.50000  1.0000
  Ti  Ti3       1.0  0.12600  0.69700  0.50000  1.0000
  Ti  Ti4       1.0  0.69700  0.87400  0.50000  1.0000
