data_image0
_chemical_formula_structural       Ho6Pd4
_chemical_formula_sum              "Ho6 Pd4"
_cell_length_a       7.72986
_cell_length_b       7.72986
_cell_length_c       3.93319
_cell_angle_alpha    90
_cell_angle_beta     90
_cell_angle_gamma    90

_space_group_name_H-M_alt    "P 1"
_space_group_IT_number       1

loop_
  _space_group_symop_operation_xyz
  'x, y, z'

loop_
  _atom_site_type_symbol
  _atom_site_label
  _atom_site_symmetry_multiplicity
  _atom_site_fract_x
  _atom_site_fract_y
  _atom_site_fract_z
  _atom_site_occupancy
  Ho  Ho1       1.0  0.00000  0.00000  0.00000  1.0000
  Ho  Ho2       1.0  0.50000  0.50000  0.00000  1.0000
  Ho  Ho3       1.0  0.33500  0.16500  0.50000  1.0000
  Ho  Ho4       1.0  0.83500  0.33500  0.50000  1.0000
  Ho  Ho5       1.0  0.16500  0.66500  0.50000  1.0000
  Ho  Ho6       1.0  0.66500  0.83500  0.50000  1.0000
  Pd  Pd1       1.0  0.63300  0.13300  0.00000  1.0000
  Pd  Pd2       1.0  0.13300  0.36700  0.00000  1.0000
  Pd  Pd3       1.0  0.86700  0.63300  0.00000  1.0000
  Pd  Pd4       1.0  0.36700  0.86700  0.00000  1.0000
