data_image0
_chemical_formula_structural       Pb8Pt2
_chemical_formula_sum              "Pb8 Pt2"
_cell_length_a       6.73761
_cell_length_b       6.73761
_cell_length_c       6.03377
_cell_angle_alpha    90
_cell_angle_beta     90
_cell_angle_gamma    90

_space_group_name_H-M_alt    "P 1"
_space_group_IT_number       1

loop_
  _space_group_symop_operation_xyz
  'x, y, z'

loop_
  _atom_site_type_symbol
  _atom_site_label
  _atom_site_symmetry_multiplicity
  _atom_site_fract_x
  _atom_site_fract_y
  _atom_site_fract_z
  _atom_site_occupancy
  Pb  Pb1       1.0  0.32600  0.17400  0.25400  1.0000
  Pb  Pb2       1.0  0.82600  0.32600  0.25400  1.0000
  Pb  Pb3       1.0  0.17400  0.67400  0.25400  1.0000
  Pb  Pb4       1.0  0.67400  0.82600  0.25400  1.0000
  Pb  Pb5       1.0  0.67400  0.17400  0.74600  1.0000
  Pb  Pb6       1.0  0.17400  0.32600  0.74600  1.0000
  Pb  Pb7       1.0  0.82600  0.67400  0.74600  1.0000
  Pb  Pb8       1.0  0.32600  0.82600  0.74600  1.0000
  Pt  Pt1       1.0  0.00000  0.00000  0.00000  1.0000
  Pt  Pt2       1.0  0.50000  0.50000  0.00000  1.0000
