data_image0
_chemical_formula_structural       Ni2Si6Sm2
_chemical_formula_sum              "Ni2 Si6 Sm2"
_cell_length_a       3.97481
_cell_length_b       4.00881
_cell_length_c       10.7908
_cell_angle_alpha    90
_cell_angle_beta     79.3869
_cell_angle_gamma    90

_space_group_name_H-M_alt    "P 1"
_space_group_IT_number       1

loop_
  _space_group_symop_operation_xyz
  'x, y, z'

loop_
  _atom_site_type_symbol
  _atom_site_label
  _atom_site_symmetry_multiplicity
  _atom_site_fract_x
  _atom_site_fract_y
  _atom_site_fract_z
  _atom_site_occupancy
  Ni  Ni1       1.0  0.89100  0.00000  0.21800  1.0000
  Ni  Ni2       1.0  0.10900  0.00000  0.78200  1.0000
  Si  Si1       1.0  0.44400  0.00000  0.11100  1.0000
  Si  Si2       1.0  0.94400  0.50000  0.11100  1.0000
  Si  Si3       1.0  0.78200  0.00000  0.43500  1.0000
  Si  Si4       1.0  0.21800  0.00000  0.56500  1.0000
  Si  Si5       1.0  0.05570  0.50000  0.88900  1.0000
  Si  Si6       1.0  0.55600  0.00000  0.88900  1.0000
  Sm  Sm1       1.0  0.33100  0.50000  0.33700  1.0000
  Sm  Sm2       1.0  0.66900  0.50000  0.66300  1.0000
