data_image0
_chemical_formula_structural       Pt4Sn6
_chemical_formula_sum              "Pt4 Sn6"
_cell_length_a       4.3978
_cell_length_b       4.39744
_cell_length_c       13.1366
_cell_angle_alpha    90
_cell_angle_beta     90
_cell_angle_gamma    120.003

_space_group_name_H-M_alt    "P 1"
_space_group_IT_number       1

loop_
  _space_group_symop_operation_xyz
  'x, y, z'

loop_
  _atom_site_type_symbol
  _atom_site_label
  _atom_site_symmetry_multiplicity
  _atom_site_fract_x
  _atom_site_fract_y
  _atom_site_fract_z
  _atom_site_occupancy
  Pt  Pt1       1.0  0.33300  0.66700  0.14300  1.0000
  Pt  Pt2       1.0  0.33300  0.66700  0.35700  1.0000
  Pt  Pt3       1.0  0.66700  0.33300  0.64300  1.0000
  Pt  Pt4       1.0  0.66700  0.33300  0.85700  1.0000
  Sn  Sn1       1.0  0.66700  0.33300  0.07090  1.0000
  Sn  Sn2       1.0  0.00000  0.00000  0.25000  1.0000
  Sn  Sn3       1.0  0.66700  0.33300  0.42900  1.0000
  Sn  Sn4       1.0  0.33300  0.66700  0.57100  1.0000
  Sn  Sn5       1.0  0.00001  0.00002  0.75000  1.0000
  Sn  Sn6       1.0  0.33300  0.66700  0.92900  1.0000
