data_image0
_chemical_formula_structural       F3MoNa3O3
_chemical_formula_sum              "F3 Mo1 Na3 O3"
_cell_length_a       5.75541
_cell_length_b       5.75541
_cell_length_c       5.75541
_cell_angle_alpha    57.6582
_cell_angle_beta     57.6581
_cell_angle_gamma    57.6582

_space_group_name_H-M_alt    "P 1"
_space_group_IT_number       1

loop_
  _space_group_symop_operation_xyz
  'x, y, z'

loop_
  _atom_site_type_symbol
  _atom_site_label
  _atom_site_symmetry_multiplicity
  _atom_site_fract_x
  _atom_site_fract_y
  _atom_site_fract_z
  _atom_site_occupancy
  F   F1        1.0  0.86600  0.64100  0.17900  1.0000
  F   F2        1.0  0.17900  0.86600  0.64100  1.0000
  F   F3        1.0  0.64100  0.17900  0.86600  1.0000
  Mo  Mo1       1.0  0.00089  0.00089  0.00089  1.0000
  Na  Na1       1.0  0.26600  0.26600  0.26600  1.0000
  Na  Na2       1.0  0.49000  0.49000  0.49000  1.0000
  Na  Na3       1.0  0.77200  0.77200  0.77200  1.0000
  O   O1        1.0  0.31500  0.74100  0.10000  1.0000
  O   O2        1.0  0.74100  0.10000  0.31500  1.0000
  O   O3        1.0  0.10000  0.31500  0.74100  1.0000
