data_image0
_chemical_formula_structural       Er4Fe2Si4
_chemical_formula_sum              "Er4 Fe2 Si4"
_cell_length_a       4.10724
_cell_length_b       5.57885
_cell_length_c       8.85745
_cell_angle_alpha    97.2038
_cell_angle_beta     103.406
_cell_angle_gamma    68.401

_space_group_name_H-M_alt    "P 1"
_space_group_IT_number       1

loop_
  _space_group_symop_operation_xyz
  'x, y, z'

loop_
  _atom_site_type_symbol
  _atom_site_label
  _atom_site_symmetry_multiplicity
  _atom_site_fract_x
  _atom_site_fract_y
  _atom_site_fract_z
  _atom_site_occupancy
  Er  Er1       1.0  0.18900  0.73100  0.10900  1.0000
  Er  Er2       1.0  0.99900  0.33000  0.32800  1.0000
  Er  Er3       1.0  0.00132  0.67000  0.67200  1.0000
  Er  Er4       1.0  0.81100  0.26900  0.89100  1.0000
  Fe  Fe1       1.0  0.72900  0.91800  0.37500  1.0000
  Fe  Fe2       1.0  0.27100  0.08200  0.62500  1.0000
  Si  Si1       1.0  0.49900  0.12900  0.12600  1.0000
  Si  Si2       1.0  0.34700  0.74200  0.43600  1.0000
  Si  Si3       1.0  0.65300  0.25800  0.56400  1.0000
  Si  Si4       1.0  0.50100  0.87100  0.87400  1.0000
