data_image0
_chemical_formula_structural       K3MnO4
_chemical_formula_sum              "K3 Mn1 O4"
_cell_length_a       5.70701
_cell_length_b       5.70897
_cell_length_c       5.70844
_cell_angle_alpha    105.451
_cell_angle_beta     111.523
_cell_angle_gamma    111.526

_space_group_name_H-M_alt    "P 1"
_space_group_IT_number       1

loop_
  _space_group_symop_operation_xyz
  'x, y, z'

loop_
  _atom_site_type_symbol
  _atom_site_label
  _atom_site_symmetry_multiplicity
  _atom_site_fract_x
  _atom_site_fract_y
  _atom_site_fract_z
  _atom_site_occupancy
  K   K1        1.0  0.50000  0.75000  0.25000  1.0000
  K   K2        1.0  1.00000  0.50000  0.50000  1.0000
  K   K3        1.0  0.50000  0.25000  0.75000  1.0000
  Mn  Mn1       1.0  1.00000  1.00000  1.00000  1.0000
  O   O1        1.0  0.31300  0.01590  0.01590  1.0000
  O   O2        1.0  0.00000  0.98400  0.29700  1.0000
  O   O3        1.0  0.68700  0.70300  0.70300  1.0000
  O   O4        1.0  1.00000  0.29700  0.98400  1.0000
