data_image0
_chemical_formula_structural       Cd2Pd4Pr4
_chemical_formula_sum              "Cd2 Pd4 Pr4"
_cell_length_a       7.85079
_cell_length_b       7.85079
_cell_length_c       3.94821
_cell_angle_alpha    90
_cell_angle_beta     90
_cell_angle_gamma    90

_space_group_name_H-M_alt    "P 1"
_space_group_IT_number       1

loop_
  _space_group_symop_operation_xyz
  'x, y, z'

loop_
  _atom_site_type_symbol
  _atom_site_label
  _atom_site_symmetry_multiplicity
  _atom_site_fract_x
  _atom_site_fract_y
  _atom_site_fract_z
  _atom_site_occupancy
  Cd  Cd1       1.0  0.00000  0.00000  0.00000  1.0000
  Cd  Cd2       1.0  0.50000  0.50000  0.00000  1.0000
  Pd  Pd1       1.0  0.62800  0.12800  0.00000  1.0000
  Pd  Pd2       1.0  0.12800  0.37200  0.00000  1.0000
  Pd  Pd3       1.0  0.87200  0.62800  0.00000  1.0000
  Pd  Pd4       1.0  0.37200  0.87200  0.00000  1.0000
  Pr  Pr1       1.0  0.32600  0.17400  0.50000  1.0000
  Pr  Pr2       1.0  0.82600  0.32600  0.50000  1.0000
  Pr  Pr3       1.0  0.17400  0.67400  0.50000  1.0000
  Pr  Pr4       1.0  0.67400  0.82600  0.50000  1.0000
