data_image0
_chemical_formula_structural       B2BaO6Ti
_chemical_formula_sum              "B2 Ba1 O6 Ti1"
_cell_length_a       5.05578
_cell_length_b       5.05578
_cell_length_c       6.11639
_cell_angle_alpha    65.5879
_cell_angle_beta     114.412
_cell_angle_gamma    120

_space_group_name_H-M_alt    "P 1"
_space_group_IT_number       1

loop_
  _space_group_symop_operation_xyz
  'x, y, z'

loop_
  _atom_site_type_symbol
  _atom_site_label
  _atom_site_symmetry_multiplicity
  _atom_site_fract_x
  _atom_site_fract_y
  _atom_site_fract_z
  _atom_site_occupancy
  B   B1        1.0  0.76400  0.23600  0.29200  1.0000
  B   B2        1.0  0.23600  0.76400  0.70800  1.0000
  Ba  Ba1       1.0  0.00000  0.00000  0.00000  1.0000
  O   O1        1.0  0.64200  0.92800  0.28300  1.0000
  O   O2        1.0  0.56900  0.35800  0.28300  1.0000
  O   O3        1.0  0.07180  0.43100  0.28300  1.0000
  O   O4        1.0  0.92800  0.56900  0.71700  1.0000
  O   O5        1.0  0.43100  0.64200  0.71700  1.0000
  O   O6        1.0  0.35800  0.07180  0.71700  1.0000
  Ti  Ti1       1.0  0.50000  0.50000  0.50000  1.0000
