data_image0
_chemical_formula_structural       In2Np4Rh4
_chemical_formula_sum              "In2 Np4 Rh4"
_cell_length_a       7.5324
_cell_length_b       7.5324
_cell_length_c       3.65438
_cell_angle_alpha    90
_cell_angle_beta     90
_cell_angle_gamma    90

_space_group_name_H-M_alt    "P 1"
_space_group_IT_number       1

loop_
  _space_group_symop_operation_xyz
  'x, y, z'

loop_
  _atom_site_type_symbol
  _atom_site_label
  _atom_site_symmetry_multiplicity
  _atom_site_fract_x
  _atom_site_fract_y
  _atom_site_fract_z
  _atom_site_occupancy
  In  In1       1.0  0.00000  0.00000  0.00000  1.0000
  In  In2       1.0  0.50000  0.50000  0.00000  1.0000
  Np  Np1       1.0  0.33100  0.16900  0.50000  1.0000
  Np  Np2       1.0  0.83100  0.33100  0.50000  1.0000
  Np  Np3       1.0  0.16900  0.66900  0.50000  1.0000
  Np  Np4       1.0  0.66900  0.83100  0.50000  1.0000
  Rh  Rh1       1.0  0.63400  0.13400  0.00000  1.0000
  Rh  Rh2       1.0  0.13400  0.36600  0.00000  1.0000
  Rh  Rh3       1.0  0.86600  0.63400  0.00000  1.0000
  Rh  Rh4       1.0  0.36600  0.86600  0.00000  1.0000
