data_image0
_chemical_formula_structural       Mg2Nd4Ni4
_chemical_formula_sum              "Mg2 Nd4 Ni4"
_cell_length_a       7.51942
_cell_length_b       7.51942
_cell_length_c       3.8371
_cell_angle_alpha    90
_cell_angle_beta     90
_cell_angle_gamma    90

_space_group_name_H-M_alt    "P 1"
_space_group_IT_number       1

loop_
  _space_group_symop_operation_xyz
  'x, y, z'

loop_
  _atom_site_type_symbol
  _atom_site_label
  _atom_site_symmetry_multiplicity
  _atom_site_fract_x
  _atom_site_fract_y
  _atom_site_fract_z
  _atom_site_occupancy
  Mg  Mg1       1.0  0.00000  0.00000  0.00000  1.0000
  Mg  Mg2       1.0  0.50000  0.50000  0.00000  1.0000
  Nd  Nd1       1.0  0.32700  0.17300  0.50000  1.0000
  Nd  Nd2       1.0  0.82700  0.32700  0.50000  1.0000
  Nd  Nd3       1.0  0.17300  0.67300  0.50000  1.0000
  Nd  Nd4       1.0  0.67300  0.82700  0.50000  1.0000
  Ni  Ni1       1.0  0.62100  0.12100  0.00000  1.0000
  Ni  Ni2       1.0  0.12100  0.37900  0.00000  1.0000
  Ni  Ni3       1.0  0.87900  0.62100  0.00000  1.0000
  Ni  Ni4       1.0  0.37900  0.87900  0.00000  1.0000
