data_image0
_chemical_formula_structural       Sb4Tl2Zn4
_chemical_formula_sum              "Sb4 Tl2 Zn4"
_cell_length_a       7.09053
_cell_length_b       7.09053
_cell_length_c       7.09053
_cell_angle_alpha    105.846
_cell_angle_beta     116.993
_cell_angle_gamma    105.846

_space_group_name_H-M_alt    "P 1"
_space_group_IT_number       1

loop_
  _space_group_symop_operation_xyz
  'x, y, z'

loop_
  _atom_site_type_symbol
  _atom_site_label
  _atom_site_symmetry_multiplicity
  _atom_site_fract_x
  _atom_site_fract_y
  _atom_site_fract_z
  _atom_site_occupancy
  Sb  Sb1       1.0  0.66200  0.80900  0.16200  1.0000
  Sb  Sb2       1.0  0.16200  0.50000  0.35300  1.0000
  Sb  Sb3       1.0  0.85300  0.50000  0.66200  1.0000
  Sb  Sb4       1.0  0.35300  0.19100  0.85300  1.0000
  Tl  Tl1       1.0  0.25100  0.00000  0.25100  1.0000
  Tl  Tl2       1.0  0.75100  0.00000  0.75100  1.0000
  Zn  Zn1       1.0  0.22500  0.50000  0.00604  1.0000
  Zn  Zn2       1.0  0.72500  0.21900  0.22500  1.0000
  Zn  Zn3       1.0  0.00604  0.78100  0.50600  1.0000
  Zn  Zn4       1.0  0.50600  0.50000  0.72500  1.0000
