data_image0
_chemical_formula_structural       Ge4Ho4Rh2
_chemical_formula_sum              "Ge4 Ho4 Rh2"
_cell_length_a       4.2891
_cell_length_b       5.66535
_cell_length_c       9.38613
_cell_angle_alpha    98.2203
_cell_angle_beta     103.208
_cell_angle_gamma    67.7569

_space_group_name_H-M_alt    "P 1"
_space_group_IT_number       1

loop_
  _space_group_symop_operation_xyz
  'x, y, z'

loop_
  _atom_site_type_symbol
  _atom_site_label
  _atom_site_symmetry_multiplicity
  _atom_site_fract_x
  _atom_site_fract_y
  _atom_site_fract_z
  _atom_site_occupancy
  Ge  Ge1       1.0  0.47900  0.15900  0.11700  1.0000
  Ge  Ge2       1.0  0.35700  0.72700  0.44000  1.0000
  Ge  Ge3       1.0  0.64300  0.27300  0.56000  1.0000
  Ge  Ge4       1.0  0.52100  0.84100  0.88300  1.0000
  Ho  Ho1       1.0  0.18800  0.74000  0.11500  1.0000
  Ho  Ho2       1.0  0.00729  0.31500  0.33000  1.0000
  Ho  Ho3       1.0  0.99300  0.68500  0.67000  1.0000
  Ho  Ho4       1.0  0.81200  0.26000  0.88500  1.0000
  Rh  Rh1       1.0  0.72600  0.89300  0.34500  1.0000
  Rh  Rh2       1.0  0.27400  0.10700  0.65500  1.0000
