data_image0
_chemical_formula_structural       Cs4In6
_chemical_formula_sum              "Cs4 In6"
_cell_length_a       7.01141
_cell_length_b       7.01141
_cell_length_c       9.67478
_cell_angle_alpha    111.245
_cell_angle_beta     111.245
_cell_angle_gamma    90

_space_group_name_H-M_alt    "P 1"
_space_group_IT_number       1

loop_
  _space_group_symop_operation_xyz
  'x, y, z'

loop_
  _atom_site_type_symbol
  _atom_site_label
  _atom_site_symmetry_multiplicity
  _atom_site_fract_x
  _atom_site_fract_y
  _atom_site_fract_z
  _atom_site_occupancy
  Cs  Cs1       1.0  0.61200  0.61200  0.22400  1.0000
  Cs  Cs2       1.0  0.75000  0.25000  0.50000  1.0000
  Cs  Cs3       1.0  0.25000  0.75000  0.50000  1.0000
  Cs  Cs4       1.0  0.38800  0.38800  0.77600  1.0000
  In  In1       1.0  0.00507  0.30100  0.01010  1.0000
  In  In2       1.0  0.00507  0.71000  0.01010  1.0000
  In  In3       1.0  0.14200  0.14200  0.28500  1.0000
  In  In4       1.0  0.85800  0.85800  0.71500  1.0000
  In  In5       1.0  0.29000  0.99500  0.99000  1.0000
  In  In6       1.0  0.69900  0.99500  0.99000  1.0000
