data_image0
_chemical_formula_structural       Fe4Sn2U4
_chemical_formula_sum              "Fe4 Sn2 U4"
_cell_length_a       7.26125
_cell_length_b       7.26125
_cell_length_c       3.36014
_cell_angle_alpha    90
_cell_angle_beta     90
_cell_angle_gamma    90

_space_group_name_H-M_alt    "P 1"
_space_group_IT_number       1

loop_
  _space_group_symop_operation_xyz
  'x, y, z'

loop_
  _atom_site_type_symbol
  _atom_site_label
  _atom_site_symmetry_multiplicity
  _atom_site_fract_x
  _atom_site_fract_y
  _atom_site_fract_z
  _atom_site_occupancy
  Fe  Fe1       1.0  0.63500  0.13500  0.00000  1.0000
  Fe  Fe2       1.0  0.13500  0.36500  0.00000  1.0000
  Fe  Fe3       1.0  0.86500  0.63500  0.00000  1.0000
  Fe  Fe4       1.0  0.36500  0.86500  0.00000  1.0000
  Sn  Sn1       1.0  0.00000  0.00000  0.00000  1.0000
  Sn  Sn2       1.0  0.50000  0.50000  0.00000  1.0000
  U   U1        1.0  0.33500  0.16500  0.50000  1.0000
  U   U2        1.0  0.83500  0.33500  0.50000  1.0000
  U   U3        1.0  0.16500  0.66500  0.50000  1.0000
  U   U4        1.0  0.66500  0.83500  0.50000  1.0000
