data_image0
_chemical_formula_structural       Ca2Cl2Fe2O4
_chemical_formula_sum              "Ca2 Cl2 Fe2 O4"
_cell_length_a       3.82952
_cell_length_b       5.37994
_cell_length_c       8.65584
_cell_angle_alpha    103.04
_cell_angle_beta     90
_cell_angle_gamma    110.849

_space_group_name_H-M_alt    "P 1"
_space_group_IT_number       1

loop_
  _space_group_symop_operation_xyz
  'x, y, z'

loop_
  _atom_site_type_symbol
  _atom_site_label
  _atom_site_symmetry_multiplicity
  _atom_site_fract_x
  _atom_site_fract_y
  _atom_site_fract_z
  _atom_site_occupancy
  Ca  Ca1       1.0  0.60800  0.21600  0.29600  1.0000
  Ca  Ca2       1.0  0.39200  0.78400  0.70400  1.0000
  Cl  Cl1       1.0  0.33500  0.67100  0.37400  1.0000
  Cl  Cl2       1.0  0.66500  0.32900  0.62600  1.0000
  Fe  Fe1       1.0  0.86100  0.72200  0.99900  1.0000
  Fe  Fe2       1.0  0.13900  0.27800  0.00140  1.0000
  O   O1        1.0  0.68500  0.37100  0.06120  1.0000
  O   O2        1.0  0.02250  0.04510  0.16500  1.0000
  O   O3        1.0  0.97700  0.95500  0.83500  1.0000
  O   O4        1.0  0.31500  0.62900  0.93900  1.0000
