data_image0
_chemical_formula_structural       Eu2In8
_chemical_formula_sum              "Eu2 In8"
_cell_length_a       5.1162
_cell_length_b       6.48642
_cell_length_c       9.53769
_cell_angle_alpha    94.1275
_cell_angle_beta     105.558
_cell_angle_gamma    113.227

_space_group_name_H-M_alt    "P 1"
_space_group_IT_number       1

loop_
  _space_group_symop_operation_xyz
  'x, y, z'

loop_
  _atom_site_type_symbol
  _atom_site_label
  _atom_site_symmetry_multiplicity
  _atom_site_fract_x
  _atom_site_fract_y
  _atom_site_fract_z
  _atom_site_occupancy
  Eu  Eu1       1.0  0.45800  0.62300  0.29300  1.0000
  Eu  Eu2       1.0  0.54200  0.37700  0.70700  1.0000
  In  In1       1.0  0.89500  0.73900  0.05130  1.0000
  In  In2       1.0  0.66700  0.22900  0.10400  1.0000
  In  In3       1.0  0.19400  0.03970  0.34800  1.0000
  In  In4       1.0  0.84700  0.26900  0.42500  1.0000
  In  In5       1.0  0.15300  0.73100  0.57500  1.0000
  In  In6       1.0  0.80600  0.96000  0.65200  1.0000
  In  In7       1.0  0.33300  0.77100  0.89600  1.0000
  In  In8       1.0  0.10500  0.26100  0.94900  1.0000
