data_image0
_chemical_formula_structural       Ba2BiO6Tb
_chemical_formula_sum              "Ba2 Bi1 O6 Tb1"
_cell_length_a       6.07601
_cell_length_b       6.08519
_cell_length_c       6.09355
_cell_angle_alpha    119.583
_cell_angle_beta     60.0952
_cell_angle_gamma    119.95

_space_group_name_H-M_alt    "P 1"
_space_group_IT_number       1

loop_
  _space_group_symop_operation_xyz
  'x, y, z'

loop_
  _atom_site_type_symbol
  _atom_site_label
  _atom_site_symmetry_multiplicity
  _atom_site_fract_x
  _atom_site_fract_y
  _atom_site_fract_z
  _atom_site_occupancy
  Ba  Ba1       1.0  0.75000  0.74700  0.24700  1.0000
  Ba  Ba2       1.0  0.25000  0.25300  0.75300  1.0000
  Bi  Bi1       1.0  0.50000  0.00000  0.00000  1.0000
  O   O1        1.0  0.28500  0.27100  0.21300  1.0000
  O   O2        1.0  0.77300  0.27100  0.21300  1.0000
  O   O3        1.0  0.25700  0.81200  0.29700  1.0000
  O   O4        1.0  0.74300  0.18800  0.70300  1.0000
  O   O5        1.0  0.22700  0.72900  0.78700  1.0000
  O   O6        1.0  0.71500  0.72900  0.78700  1.0000
  Tb  Tb1       1.0  0.00000  0.50000  0.50000  1.0000
