data_image0
_chemical_formula_structural       Eu2Sn4Zn4
_chemical_formula_sum              "Eu2 Sn4 Zn4"
_cell_length_a       4.60812
_cell_length_b       4.57364
_cell_length_c       11.306
_cell_angle_alpha    90
_cell_angle_beta     90.797
_cell_angle_gamma    90

_space_group_name_H-M_alt    "P 1"
_space_group_IT_number       1

loop_
  _space_group_symop_operation_xyz
  'x, y, z'

loop_
  _atom_site_type_symbol
  _atom_site_label
  _atom_site_symmetry_multiplicity
  _atom_site_fract_x
  _atom_site_fract_y
  _atom_site_fract_z
  _atom_site_occupancy
  Eu  Eu1       1.0  0.74000  0.75100  0.24500  1.0000
  Eu  Eu2       1.0  0.26000  0.25100  0.75500  1.0000
  Sn  Sn1       1.0  0.21900  0.25000  0.13200  1.0000
  Sn  Sn2       1.0  0.75800  0.25300  0.50000  1.0000
  Sn  Sn3       1.0  0.24200  0.75300  0.50000  1.0000
  Sn  Sn4       1.0  0.78100  0.75000  0.86800  1.0000
  Zn  Zn1       1.0  0.71900  0.25000  0.00077  1.0000
  Zn  Zn2       1.0  0.26100  0.25600  0.36000  1.0000
  Zn  Zn3       1.0  0.73900  0.75600  0.64000  1.0000
  Zn  Zn4       1.0  0.28100  0.75000  0.99900  1.0000
