data_image0
_chemical_formula_structural       Cr2Ge6La2
_chemical_formula_sum              "Cr2 Ge6 La2"
_cell_length_a       6.20498
_cell_length_b       6.2048
_cell_length_c       5.75154
_cell_angle_alpha    90
_cell_angle_beta     90
_cell_angle_gamma    120.001

_space_group_name_H-M_alt    "P 1"
_space_group_IT_number       1

loop_
  _space_group_symop_operation_xyz
  'x, y, z'

loop_
  _atom_site_type_symbol
  _atom_site_label
  _atom_site_symmetry_multiplicity
  _atom_site_fract_x
  _atom_site_fract_y
  _atom_site_fract_z
  _atom_site_occupancy
  Cr  Cr1       1.0  0.00000  0.00000  0.00000  1.0000
  Cr  Cr2       1.0  0.00000  0.00000  0.50000  1.0000
  Ge  Ge1       1.0  0.19200  0.38300  0.25000  1.0000
  Ge  Ge2       1.0  0.19200  0.80800  0.25000  1.0000
  Ge  Ge3       1.0  0.61700  0.80800  0.25000  1.0000
  Ge  Ge4       1.0  0.38300  0.19200  0.75000  1.0000
  Ge  Ge5       1.0  0.80800  0.19200  0.75000  1.0000
  Ge  Ge6       1.0  0.80800  0.61700  0.75000  1.0000
  La  La1       1.0  0.66700  0.33300  0.25000  1.0000
  La  La2       1.0  0.33300  0.66700  0.75000  1.0000
