data_image0
_chemical_formula_structural       Pb6Sr4
_chemical_formula_sum              "Pb6 Sr4"
_cell_length_a       8.38995
_cell_length_b       8.38995
_cell_length_c       4.94955
_cell_angle_alpha    90
_cell_angle_beta     90
_cell_angle_gamma    90

_space_group_name_H-M_alt    "P 1"
_space_group_IT_number       1

loop_
  _space_group_symop_operation_xyz
  'x, y, z'

loop_
  _atom_site_type_symbol
  _atom_site_label
  _atom_site_symmetry_multiplicity
  _atom_site_fract_x
  _atom_site_fract_y
  _atom_site_fract_z
  _atom_site_occupancy
  Pb  Pb1       1.0  0.00000  0.00000  0.50000  1.0000
  Pb  Pb2       1.0  0.62900  0.12900  0.50000  1.0000
  Pb  Pb3       1.0  0.12900  0.37100  0.50000  1.0000
  Pb  Pb4       1.0  0.50000  0.50000  0.50000  1.0000
  Pb  Pb5       1.0  0.87100  0.62900  0.50000  1.0000
  Pb  Pb6       1.0  0.37100  0.87100  0.50000  1.0000
  Sr  Sr1       1.0  0.32700  0.17300  0.00000  1.0000
  Sr  Sr2       1.0  0.82700  0.32700  0.00000  1.0000
  Sr  Sr3       1.0  0.17300  0.67300  0.00000  1.0000
  Sr  Sr4       1.0  0.67300  0.82700  0.00000  1.0000
