data_image0
_chemical_formula_structural       Cr4Se6
_chemical_formula_sum              "Cr4 Se6"
_cell_length_a       6.31464
_cell_length_b       6.31464
_cell_length_c       6.86405
_cell_angle_alpha    117.386
_cell_angle_beta     62.6143
_cell_angle_gamma    120

_space_group_name_H-M_alt    "P 1"
_space_group_IT_number       1

loop_
  _space_group_symop_operation_xyz
  'x, y, z'

loop_
  _atom_site_type_symbol
  _atom_site_label
  _atom_site_symmetry_multiplicity
  _atom_site_fract_x
  _atom_site_fract_y
  _atom_site_fract_z
  _atom_site_occupancy
  Cr  Cr1       1.0  0.00000  0.00000  0.00000  1.0000
  Cr  Cr2       1.0  0.32500  0.67500  0.02640  1.0000
  Cr  Cr3       1.0  0.50000  0.50000  0.50000  1.0000
  Cr  Cr4       1.0  0.67500  0.32500  0.97400  1.0000
  Se  Se1       1.0  0.25800  0.09340  0.24200  1.0000
  Se  Se2       1.0  0.90700  0.40600  0.24200  1.0000
  Se  Se3       1.0  0.59400  0.74200  0.24200  1.0000
  Se  Se4       1.0  0.40600  0.25800  0.75800  1.0000
  Se  Se5       1.0  0.09340  0.59400  0.75800  1.0000
  Se  Se6       1.0  0.74200  0.90700  0.75800  1.0000
