data_image0
_chemical_formula_structural       La2MgMnO6
_chemical_formula_sum              "La2 Mg1 Mn1 O6"
_cell_length_a       5.43679
_cell_length_b       5.43679
_cell_length_c       5.43679
_cell_angle_alpha    119.069
_cell_angle_beta     119.069
_cell_angle_gamma    60.9308

_space_group_name_H-M_alt    "P 1"
_space_group_IT_number       1

loop_
  _space_group_symop_operation_xyz
  'x, y, z'

loop_
  _atom_site_type_symbol
  _atom_site_label
  _atom_site_symmetry_multiplicity
  _atom_site_fract_x
  _atom_site_fract_y
  _atom_site_fract_z
  _atom_site_occupancy
  La  La1       1.0  0.75000  0.75000  0.25000  1.0000
  La  La2       1.0  0.25000  0.25000  0.75000  1.0000
  Mg  Mg1       1.0  0.50000  0.50000  0.50000  1.0000
  Mn  Mn1       1.0  0.00000  0.00000  0.00000  1.0000
  O   O1        1.0  0.69500  0.24000  0.18000  1.0000
  O   O2        1.0  0.18000  0.30500  0.24000  1.0000
  O   O3        1.0  0.24000  0.82000  0.30500  1.0000
  O   O4        1.0  0.76000  0.18000  0.69500  1.0000
  O   O5        1.0  0.82000  0.69500  0.76000  1.0000
  O   O6        1.0  0.30500  0.76000  0.82000  1.0000
