data_image0
_chemical_formula_structural       Al6Hf4
_chemical_formula_sum              "Al6 Hf4"
_cell_length_a       5.51159
_cell_length_b       5.51159
_cell_length_c       7.4398
_cell_angle_alpha    100.716
_cell_angle_beta     100.716
_cell_angle_gamma    119.868

_space_group_name_H-M_alt    "P 1"
_space_group_IT_number       1

loop_
  _space_group_symop_operation_xyz
  'x, y, z'

loop_
  _atom_site_type_symbol
  _atom_site_label
  _atom_site_symmetry_multiplicity
  _atom_site_fract_x
  _atom_site_fract_y
  _atom_site_fract_z
  _atom_site_occupancy
  Al  Al1       1.0  0.62400  0.62400  0.00000  1.0000
  Al  Al2       1.0  0.42900  0.29400  0.22900  1.0000
  Al  Al3       1.0  0.45100  0.81500  0.27100  1.0000
  Al  Al4       1.0  0.87400  0.37400  0.50000  1.0000
  Al  Al5       1.0  0.54400  0.17900  0.72900  1.0000
  Al  Al6       1.0  0.06490  0.20100  0.77100  1.0000
  Hf  Hf1       1.0  0.87400  0.24300  0.10600  1.0000
  Hf  Hf2       1.0  0.01840  0.88700  0.39400  1.0000
  Hf  Hf3       1.0  0.49300  0.62400  0.60600  1.0000
  Hf  Hf4       1.0  0.13700  0.76800  0.89400  1.0000
