data_image0
_chemical_formula_structural       Er6Pd4
_chemical_formula_sum              "Er6 Pd4"
_cell_length_a       7.69585
_cell_length_b       7.69585
_cell_length_c       3.91635
_cell_angle_alpha    90
_cell_angle_beta     90
_cell_angle_gamma    90

_space_group_name_H-M_alt    "P 1"
_space_group_IT_number       1

loop_
  _space_group_symop_operation_xyz
  'x, y, z'

loop_
  _atom_site_type_symbol
  _atom_site_label
  _atom_site_symmetry_multiplicity
  _atom_site_fract_x
  _atom_site_fract_y
  _atom_site_fract_z
  _atom_site_occupancy
  Er  Er1       1.0  0.00000  0.00000  0.00000  1.0000
  Er  Er2       1.0  0.50000  0.50000  0.00000  1.0000
  Er  Er3       1.0  0.33600  0.16400  0.50000  1.0000
  Er  Er4       1.0  0.83600  0.33600  0.50000  1.0000
  Er  Er5       1.0  0.16400  0.66400  0.50000  1.0000
  Er  Er6       1.0  0.66400  0.83600  0.50000  1.0000
  Pd  Pd1       1.0  0.63500  0.13500  0.00000  1.0000
  Pd  Pd2       1.0  0.13500  0.36500  0.00000  1.0000
  Pd  Pd3       1.0  0.86500  0.63500  0.00000  1.0000
  Pd  Pd4       1.0  0.36500  0.86500  0.00000  1.0000
