data_image0
_chemical_formula_structural       C2Fe4Si2Th2
_chemical_formula_sum              "C2 Fe4 Si2 Th2"
_cell_length_a       3.89242
_cell_length_b       5.69059
_cell_length_c       6.78487
_cell_angle_alpha    90
_cell_angle_beta     90
_cell_angle_gamma    70.0009

_space_group_name_H-M_alt    "P 1"
_space_group_IT_number       1

loop_
  _space_group_symop_operation_xyz
  'x, y, z'

loop_
  _atom_site_type_symbol
  _atom_site_label
  _atom_site_symmetry_multiplicity
  _atom_site_fract_x
  _atom_site_fract_y
  _atom_site_fract_z
  _atom_site_occupancy
  C   C1        1.0  0.50000  0.00000  0.00000  1.0000
  C   C2        1.0  0.50000  0.00000  0.50000  1.0000
  Fe  Fe1       1.0  0.66400  0.67300  0.06100  1.0000
  Fe  Fe2       1.0  0.66400  0.67300  0.43900  1.0000
  Fe  Fe3       1.0  0.33600  0.32700  0.56100  1.0000
  Fe  Fe4       1.0  0.33600  0.32700  0.93900  1.0000
  Si  Si1       1.0  0.22400  0.55200  0.25000  1.0000
  Si  Si2       1.0  0.77600  0.44800  0.75000  1.0000
  Th  Th1       1.0  0.94100  0.11900  0.25000  1.0000
  Th  Th2       1.0  0.05930  0.88100  0.75000  1.0000
