data_image0
_chemical_formula_structural       Ni4Sb2Te4
_chemical_formula_sum              "Ni4 Sb2 Te4"
_cell_length_a       3.93346
_cell_length_b       3.93361
_cell_length_c       15.6656
_cell_angle_alpha    90
_cell_angle_beta     90
_cell_angle_gamma    119.999

_space_group_name_H-M_alt    "P 1"
_space_group_IT_number       1

loop_
  _space_group_symop_operation_xyz
  'x, y, z'

loop_
  _atom_site_type_symbol
  _atom_site_label
  _atom_site_symmetry_multiplicity
  _atom_site_fract_x
  _atom_site_fract_y
  _atom_site_fract_z
  _atom_site_occupancy
  Ni  Ni1       1.0  0.00000  0.00001  0.16600  1.0000
  Ni  Ni2       1.0  0.00000  0.00001  0.33400  1.0000
  Ni  Ni3       1.0  0.00000  0.00000  0.66600  1.0000
  Ni  Ni4       1.0  0.00000  0.00000  0.83400  1.0000
  Sb  Sb1       1.0  0.33300  0.66700  0.25000  1.0000
  Sb  Sb2       1.0  0.66700  0.33300  0.75000  1.0000
  Te  Te1       1.0  0.66700  0.33300  0.08810  1.0000
  Te  Te2       1.0  0.66700  0.33300  0.41200  1.0000
  Te  Te3       1.0  0.33300  0.66700  0.58800  1.0000
  Te  Te4       1.0  0.33300  0.66700  0.91200  1.0000
