data_image0
_chemical_formula_structural       C2Fe2O6
_chemical_formula_sum              "C2 Fe2 O6"
_cell_length_a       4.71405
_cell_length_b       4.71405
_cell_length_c       5.67973
_cell_angle_alpha    90
_cell_angle_beta     114.519
_cell_angle_gamma    60

_space_group_name_H-M_alt    "P 1"
_space_group_IT_number       1

loop_
  _space_group_symop_operation_xyz
  'x, y, z'

loop_
  _atom_site_type_symbol
  _atom_site_label
  _atom_site_symmetry_multiplicity
  _atom_site_fract_x
  _atom_site_fract_y
  _atom_site_fract_z
  _atom_site_occupancy
  C   C1        1.0  0.50000  0.25000  0.25000  1.0000
  C   C2        1.0  0.50000  0.75000  0.75000  1.0000
  Fe  Fe1       1.0  0.00000  0.00000  0.00000  1.0000
  Fe  Fe2       1.0  0.00000  0.50000  0.50000  1.0000
  O   O1        1.0  0.77400  0.97600  0.25000  1.0000
  O   O2        1.0  0.50000  0.52400  0.25000  1.0000
  O   O3        1.0  0.22600  0.25000  0.25000  1.0000
  O   O4        1.0  0.77400  0.75000  0.75000  1.0000
  O   O5        1.0  0.50000  0.47600  0.75000  1.0000
  O   O6        1.0  0.22600  0.02450  0.75000  1.0000
