data_image0
_chemical_formula_structural       Au2Br6Cs2
_chemical_formula_sum              "Au2 Br6 Cs2"
_cell_length_a       7.79152
_cell_length_b       7.79152
_cell_length_c       7.94426
_cell_angle_alpha    119.366
_cell_angle_beta     119.366
_cell_angle_gamma    90

_space_group_name_H-M_alt    "P 1"
_space_group_IT_number       1

loop_
  _space_group_symop_operation_xyz
  'x, y, z'

loop_
  _atom_site_type_symbol
  _atom_site_label
  _atom_site_symmetry_multiplicity
  _atom_site_fract_x
  _atom_site_fract_y
  _atom_site_fract_z
  _atom_site_occupancy
  Au  Au1       1.0  0.00000  0.00000  0.00000  1.0000
  Au  Au2       1.0  0.50000  0.50000  0.00000  1.0000
  Br  Br1       1.0  0.22900  0.22900  0.00000  1.0000
  Br  Br2       1.0  0.77100  0.22900  0.00000  1.0000
  Br  Br3       1.0  0.22900  0.77100  0.00000  1.0000
  Br  Br4       1.0  0.77100  0.77100  0.00000  1.0000
  Br  Br5       1.0  0.71500  0.71500  0.43100  1.0000
  Br  Br6       1.0  0.28500  0.28500  0.56900  1.0000
  Cs  Cs1       1.0  0.75000  0.25000  0.50000  1.0000
  Cs  Cs2       1.0  0.25000  0.75000  0.50000  1.0000
