data_image0
_chemical_formula_structural       Cl8Th2
_chemical_formula_sum              "Cl8 Th2"
_cell_length_a       7.11718
_cell_length_b       7.11718
_cell_length_c       7.11718
_cell_angle_alpha    106.434
_cell_angle_beta     115.733
_cell_angle_gamma    106.434

_space_group_name_H-M_alt    "P 1"
_space_group_IT_number       1

loop_
  _space_group_symop_operation_xyz
  'x, y, z'

loop_
  _atom_site_type_symbol
  _atom_site_label
  _atom_site_symmetry_multiplicity
  _atom_site_fract_x
  _atom_site_fract_y
  _atom_site_fract_z
  _atom_site_occupancy
  Cl  Cl1       1.0  0.38700  0.31400  0.07320  1.0000
  Cl  Cl2       1.0  0.75900  0.68600  0.07320  1.0000
  Cl  Cl3       1.0  0.32300  0.81400  0.13700  1.0000
  Cl  Cl4       1.0  0.92700  0.31400  0.24100  1.0000
  Cl  Cl5       1.0  0.32300  0.18600  0.50900  1.0000
  Cl  Cl6       1.0  0.92700  0.68600  0.61300  1.0000
  Cl  Cl7       1.0  0.49100  0.81400  0.67700  1.0000
  Cl  Cl8       1.0  0.86300  0.18600  0.67700  1.0000
  Th  Th1       1.0  0.00000  0.00000  0.00000  1.0000
  Th  Th2       1.0  0.25000  0.50000  0.75000  1.0000
