data_image0
_chemical_formula_structural       C4Cs2O4
_chemical_formula_sum              "C4 Cs2 O4"
_cell_length_a       4.66573
_cell_length_b       6.54011
_cell_length_c       6.54011
_cell_angle_alpha    65.0572
_cell_angle_beta     93.2066
_cell_angle_gamma    93.2066

_space_group_name_H-M_alt    "P 1"
_space_group_IT_number       1

loop_
  _space_group_symop_operation_xyz
  'x, y, z'

loop_
  _atom_site_type_symbol
  _atom_site_label
  _atom_site_symmetry_multiplicity
  _atom_site_fract_x
  _atom_site_fract_y
  _atom_site_fract_z
  _atom_site_occupancy
  C   C1        1.0  0.10200  0.84600  0.05640  1.0000
  C   C2        1.0  0.89800  0.94400  0.15400  1.0000
  C   C3        1.0  0.10200  0.05640  0.84600  1.0000
  C   C4        1.0  0.89800  0.15400  0.94400  1.0000
  Cs  Cs1       1.0  0.69500  0.34400  0.34400  1.0000
  Cs  Cs2       1.0  0.30500  0.65600  0.65600  1.0000
  O   O1        1.0  0.22000  0.65900  0.12500  1.0000
  O   O2        1.0  0.78000  0.87500  0.34100  1.0000
  O   O3        1.0  0.22000  0.12500  0.65900  1.0000
  O   O4        1.0  0.78000  0.34100  0.87500  1.0000
