data_image0
_chemical_formula_structural       Gd3Sn7
_chemical_formula_sum              "Gd3 Sn7"
_cell_length_a       4.4479
_cell_length_b       4.43593
_cell_length_c       13.4991
_cell_angle_alpha    80.5432
_cell_angle_beta     90
_cell_angle_gamma    90

_space_group_name_H-M_alt    "P 1"
_space_group_IT_number       1

loop_
  _space_group_symop_operation_xyz
  'x, y, z'

loop_
  _atom_site_type_symbol
  _atom_site_label
  _atom_site_symmetry_multiplicity
  _atom_site_fract_x
  _atom_site_fract_y
  _atom_site_fract_z
  _atom_site_occupancy
  Gd  Gd1       1.0  0.50000  0.00000  0.00000  1.0000
  Gd  Gd2       1.0  0.00000  0.31200  0.37600  1.0000
  Gd  Gd3       1.0  0.00000  0.68800  0.62400  1.0000
  Sn  Sn1       1.0  0.00000  0.50000  0.00000  1.0000
  Sn  Sn2       1.0  0.00000  0.90400  0.19200  1.0000
  Sn  Sn3       1.0  0.50000  0.40400  0.19200  1.0000
  Sn  Sn4       1.0  0.50000  0.78800  0.42300  1.0000
  Sn  Sn5       1.0  0.50000  0.21200  0.57700  1.0000
  Sn  Sn6       1.0  0.50000  0.59600  0.80800  1.0000
  Sn  Sn7       1.0  0.00000  0.09590  0.80800  1.0000
