data_image0
_chemical_formula_structural       Ga3Pd7
_chemical_formula_sum              "Ga3 Pd7"
_cell_length_a       4.11024
_cell_length_b       5.51382
_cell_length_c       7.18839
_cell_angle_alpha    104.543
_cell_angle_beta     106.612
_cell_angle_gamma    90

_space_group_name_H-M_alt    "P 1"
_space_group_IT_number       1

loop_
  _space_group_symop_operation_xyz
  'x, y, z'

loop_
  _atom_site_type_symbol
  _atom_site_label
  _atom_site_symmetry_multiplicity
  _atom_site_fract_x
  _atom_site_fract_y
  _atom_site_fract_z
  _atom_site_occupancy
  Ga  Ga1       1.0  0.00000  0.00000  0.00000  1.0000
  Ga  Ga2       1.0  0.19100  0.65800  0.38200  1.0000
  Ga  Ga3       1.0  0.80900  0.34200  0.61800  1.0000
  Pd  Pd1       1.0  0.00000  0.50000  0.00000  1.0000
  Pd  Pd2       1.0  0.58400  0.85400  0.16700  1.0000
  Pd  Pd3       1.0  0.62400  0.38100  0.24800  1.0000
  Pd  Pd4       1.0  0.20600  0.14000  0.41300  1.0000
  Pd  Pd5       1.0  0.79400  0.86000  0.58700  1.0000
  Pd  Pd6       1.0  0.37600  0.61900  0.75200  1.0000
  Pd  Pd7       1.0  0.41600  0.14600  0.83300  1.0000
