data_image0
_chemical_formula_structural       F6K2Ni
_chemical_formula_sum              "F6 K2 Ni1"
_cell_length_a       5.45217
_cell_length_b       5.38725
_cell_length_c       5.25138
_cell_angle_alpha    119.457
_cell_angle_beta     90.6686
_cell_angle_gamma    120.44

_space_group_name_H-M_alt    "P 1"
_space_group_IT_number       1

loop_
  _space_group_symop_operation_xyz
  'x, y, z'

loop_
  _atom_site_type_symbol
  _atom_site_label
  _atom_site_symmetry_multiplicity
  _atom_site_fract_x
  _atom_site_fract_y
  _atom_site_fract_z
  _atom_site_occupancy
  F   F1        1.0  0.23900  0.47400  0.23900  1.0000
  F   F2        1.0  0.76900  0.00190  0.24100  1.0000
  F   F3        1.0  0.23600  0.00179  0.24300  1.0000
  F   F4        1.0  0.76400  0.99800  0.75700  1.0000
  F   F5        1.0  0.23100  0.99800  0.75900  1.0000
  F   F6        1.0  0.76100  0.52600  0.76100  1.0000
  K   K1        1.0  0.74600  0.48800  0.24100  1.0000
  K   K2        1.0  0.25400  0.51200  0.75900  1.0000
  Ni  Ni1       1.0  1.00000  1.00000  1.00000  1.0000
