data_image0
_chemical_formula_structural       Au2I6Rb2
_chemical_formula_sum              "Au2 I6 Rb2"
_cell_length_a       7.9264
_cell_length_b       7.9264
_cell_length_c       8.74536
_cell_angle_alpha    114.853
_cell_angle_beta     114.853
_cell_angle_gamma    60.3938

_space_group_name_H-M_alt    "P 1"
_space_group_IT_number       1

loop_
  _space_group_symop_operation_xyz
  'x, y, z'

loop_
  _atom_site_type_symbol
  _atom_site_label
  _atom_site_symmetry_multiplicity
  _atom_site_fract_x
  _atom_site_fract_y
  _atom_site_fract_z
  _atom_site_occupancy
  Au  Au1       1.0  0.00000  0.00000  0.00000  1.0000
  Au  Au2       1.0  0.50000  0.50000  0.50000  1.0000
  I   I1        1.0  0.72400  0.20300  0.18600  1.0000
  I   I2        1.0  0.20300  0.72400  0.18600  1.0000
  I   I3        1.0  0.28100  0.28100  0.35000  1.0000
  I   I4        1.0  0.71900  0.71900  0.65000  1.0000
  I   I5        1.0  0.79700  0.27600  0.81400  1.0000
  I   I6        1.0  0.27600  0.79700  0.81400  1.0000
  Rb  Rb1       1.0  0.73200  0.73200  0.23400  1.0000
  Rb  Rb2       1.0  0.26800  0.26800  0.76600  1.0000
