data_image0
_chemical_formula_structural       Ga6Hf4
_chemical_formula_sum              "Ga6 Hf4"
_cell_length_a       5.44935
_cell_length_b       5.44935
_cell_length_c       7.37073
_cell_angle_alpha    100.779
_cell_angle_beta     100.779
_cell_angle_gamma    119.607

_space_group_name_H-M_alt    "P 1"
_space_group_IT_number       1

loop_
  _space_group_symop_operation_xyz
  'x, y, z'

loop_
  _atom_site_type_symbol
  _atom_site_label
  _atom_site_symmetry_multiplicity
  _atom_site_fract_x
  _atom_site_fract_y
  _atom_site_fract_z
  _atom_site_occupancy
  Ga  Ga1       1.0  0.62500  0.62500  0.00000  1.0000
  Ga  Ga2       1.0  0.42700  0.28900  0.23000  1.0000
  Ga  Ga3       1.0  0.44800  0.80900  0.27000  1.0000
  Ga  Ga4       1.0  0.87500  0.37500  0.50000  1.0000
  Ga  Ga5       1.0  0.53900  0.17700  0.73000  1.0000
  Ga  Ga6       1.0  0.05910  0.19800  0.77000  1.0000
  Hf  Hf1       1.0  0.87400  0.23900  0.10500  1.0000
  Hf  Hf2       1.0  0.01950  0.88400  0.39500  1.0000
  Hf  Hf3       1.0  0.48900  0.62400  0.60500  1.0000
  Hf  Hf4       1.0  0.13400  0.77000  0.89500  1.0000
