data_image0
_chemical_formula_structural       Al8U2
_chemical_formula_sum              "Al8 U2"
_cell_length_a       4.37582
_cell_length_b       6.21196
_cell_length_c       7.86845
_cell_angle_alpha    113.25
_cell_angle_beta     106.145
_cell_angle_gamma    90

_space_group_name_H-M_alt    "P 1"
_space_group_IT_number       1

loop_
  _space_group_symop_operation_xyz
  'x, y, z'

loop_
  _atom_site_type_symbol
  _atom_site_label
  _atom_site_symmetry_multiplicity
  _atom_site_fract_x
  _atom_site_fract_y
  _atom_site_fract_z
  _atom_site_occupancy
  Al  Al1       1.0  0.50000  0.00000  0.00000  1.0000
  Al  Al2       1.0  0.50000  0.50000  0.00000  1.0000
  Al  Al3       1.0  0.11100  0.36100  0.22200  1.0000
  Al  Al4       1.0  0.69800  0.22500  0.39700  1.0000
  Al  Al5       1.0  0.69800  0.67200  0.39700  1.0000
  Al  Al6       1.0  0.30200  0.32800  0.60300  1.0000
  Al  Al7       1.0  0.30200  0.77500  0.60300  1.0000
  Al  Al8       1.0  0.88900  0.63900  0.77800  1.0000
  U   U1        1.0  0.11300  0.86300  0.22500  1.0000
  U   U2        1.0  0.88700  0.13700  0.77500  1.0000
