data_image0
_chemical_formula_structural       Pd4Pu4Sn2
_chemical_formula_sum              "Pd4 Pu4 Sn2"
_cell_length_a       7.57382
_cell_length_b       7.57382
_cell_length_c       3.9277
_cell_angle_alpha    90
_cell_angle_beta     90
_cell_angle_gamma    90

_space_group_name_H-M_alt    "P 1"
_space_group_IT_number       1

loop_
  _space_group_symop_operation_xyz
  'x, y, z'

loop_
  _atom_site_type_symbol
  _atom_site_label
  _atom_site_symmetry_multiplicity
  _atom_site_fract_x
  _atom_site_fract_y
  _atom_site_fract_z
  _atom_site_occupancy
  Pd  Pd1       1.0  0.62900  0.12900  0.00000  1.0000
  Pd  Pd2       1.0  0.12900  0.37100  0.00000  1.0000
  Pd  Pd3       1.0  0.87100  0.62900  0.00000  1.0000
  Pd  Pd4       1.0  0.37100  0.87100  0.00000  1.0000
  Pu  Pu1       1.0  0.32500  0.17500  0.50000  1.0000
  Pu  Pu2       1.0  0.82500  0.32500  0.50000  1.0000
  Pu  Pu3       1.0  0.17500  0.67500  0.50000  1.0000
  Pu  Pu4       1.0  0.67500  0.82500  0.50000  1.0000
  Sn  Sn1       1.0  0.00000  0.00000  0.00000  1.0000
  Sn  Sn2       1.0  0.50000  0.50000  0.00000  1.0000
