data_image0
_chemical_formula_structural       Eu8Ir2
_chemical_formula_sum              "Eu8 Ir2"
_cell_length_a       7.73613
_cell_length_b       7.73613
_cell_length_c       7.73613
_cell_angle_alpha    107.5
_cell_angle_beta     113.49
_cell_angle_gamma    107.5

_space_group_name_H-M_alt    "P 1"
_space_group_IT_number       1

loop_
  _space_group_symop_operation_xyz
  'x, y, z'

loop_
  _atom_site_type_symbol
  _atom_site_label
  _atom_site_symmetry_multiplicity
  _atom_site_fract_x
  _atom_site_fract_y
  _atom_site_fract_z
  _atom_site_occupancy
  Eu  Eu1       1.0  0.12000  0.80400  0.31600  1.0000
  Eu  Eu2       1.0  0.51200  0.19600  0.31600  1.0000
  Eu  Eu3       1.0  0.06570  0.30400  0.37000  1.0000
  Eu  Eu4       1.0  0.68400  0.80400  0.48800  1.0000
  Eu  Eu5       1.0  0.06570  0.69600  0.76200  1.0000
  Eu  Eu6       1.0  0.68400  0.19600  0.88000  1.0000
  Eu  Eu7       1.0  0.23800  0.30400  0.93400  1.0000
  Eu  Eu8       1.0  0.63000  0.69600  0.93400  1.0000
  Ir  Ir1       1.0  0.00000  0.00000  0.00000  1.0000
  Ir  Ir2       1.0  0.75000  0.50000  0.25000  1.0000
