data_image0
_chemical_formula_structural       Er2Ni2Si6
_chemical_formula_sum              "Er2 Ni2 Si6"
_cell_length_a       3.91392
_cell_length_b       3.92356
_cell_length_c       10.6651
_cell_angle_alpha    90
_cell_angle_beta     79.4268
_cell_angle_gamma    90

_space_group_name_H-M_alt    "P 1"
_space_group_IT_number       1

loop_
  _space_group_symop_operation_xyz
  'x, y, z'

loop_
  _atom_site_type_symbol
  _atom_site_label
  _atom_site_symmetry_multiplicity
  _atom_site_fract_x
  _atom_site_fract_y
  _atom_site_fract_z
  _atom_site_occupancy
  Er  Er1       1.0  0.33100  0.50000  0.33800  1.0000
  Er  Er2       1.0  0.66900  0.50000  0.66200  1.0000
  Ni  Ni1       1.0  0.88900  0.00000  0.22100  1.0000
  Ni  Ni2       1.0  0.11100  0.00000  0.77900  1.0000
  Si  Si1       1.0  0.94400  0.50000  0.11200  1.0000
  Si  Si2       1.0  0.44400  0.00000  0.11200  1.0000
  Si  Si3       1.0  0.78200  0.00000  0.43600  1.0000
  Si  Si4       1.0  0.21800  0.00000  0.56400  1.0000
  Si  Si5       1.0  0.55600  0.00000  0.88800  1.0000
  Si  Si6       1.0  0.05610  0.50000  0.88800  1.0000
