data_image0
_chemical_formula_structural       Cl8W2
_chemical_formula_sum              "Cl8 W2"
_cell_length_a       6.47932
_cell_length_b       6.82185
_cell_length_c       6.99704
_cell_angle_alpha    107.277
_cell_angle_beta     117.581
_cell_angle_gamma    61.6475

_space_group_name_H-M_alt    "P 1"
_space_group_IT_number       1

loop_
  _space_group_symop_operation_xyz
  'x, y, z'

loop_
  _atom_site_type_symbol
  _atom_site_label
  _atom_site_symmetry_multiplicity
  _atom_site_fract_x
  _atom_site_fract_y
  _atom_site_fract_z
  _atom_site_occupancy
  Cl  Cl1       1.0  0.68000  0.79600  0.15700  1.0000
  Cl  Cl2       1.0  0.21600  0.75500  0.18700  1.0000
  Cl  Cl3       1.0  0.26000  0.25500  0.30000  1.0000
  Cl  Cl4       1.0  0.78500  0.25500  0.30000  1.0000
  Cl  Cl5       1.0  0.21500  0.74500  0.70000  1.0000
  Cl  Cl6       1.0  0.74000  0.74500  0.70000  1.0000
  Cl  Cl7       1.0  0.78400  0.24500  0.81300  1.0000
  Cl  Cl8       1.0  0.32000  0.20400  0.84300  1.0000
  W   W1        1.0  0.20500  0.00000  0.00000  1.0000
  W   W2        1.0  0.79500  0.00000  0.00000  1.0000
