data_image0
_chemical_formula_structural       Bi2Br2Cd2S4
_chemical_formula_sum              "Bi2 Br2 Cd2 S4"
_cell_length_a       4.04818
_cell_length_b       6.87623
_cell_length_c       9.66471
_cell_angle_alpha    91.5274
_cell_angle_beta     90
_cell_angle_gamma    107.119

_space_group_name_H-M_alt    "P 1"
_space_group_IT_number       1

loop_
  _space_group_symop_operation_xyz
  'x, y, z'

loop_
  _atom_site_type_symbol
  _atom_site_label
  _atom_site_symmetry_multiplicity
  _atom_site_fract_x
  _atom_site_fract_y
  _atom_site_fract_z
  _atom_site_occupancy
  Bi  Bi1       1.0  0.71800  0.43600  0.30500  1.0000
  Bi  Bi2       1.0  0.28200  0.56400  0.69500  1.0000
  Br  Br1       1.0  0.36100  0.72200  0.07220  1.0000
  Br  Br2       1.0  0.63900  0.27800  0.92800  1.0000
  Cd  Cd1       1.0  0.00000  0.00000  0.00000  1.0000
  Cd  Cd2       1.0  0.00000  0.00000  0.50000  1.0000
  S   S1        1.0  0.08140  0.16300  0.25600  1.0000
  S   S2        1.0  0.35600  0.71200  0.44600  1.0000
  S   S3        1.0  0.64400  0.28800  0.55400  1.0000
  S   S4        1.0  0.91900  0.83700  0.74400  1.0000
