data_image0
_chemical_formula_structural       Ga6K4
_chemical_formula_sum              "Ga6 K4"
_cell_length_a       6.15915
_cell_length_b       6.15915
_cell_length_c       8.60761
_cell_angle_alpha    110.964
_cell_angle_beta     110.964
_cell_angle_gamma    90

_space_group_name_H-M_alt    "P 1"
_space_group_IT_number       1

loop_
  _space_group_symop_operation_xyz
  'x, y, z'

loop_
  _atom_site_type_symbol
  _atom_site_label
  _atom_site_symmetry_multiplicity
  _atom_site_fract_x
  _atom_site_fract_y
  _atom_site_fract_z
  _atom_site_occupancy
  Ga  Ga1       1.0  0.29500  0.00000  0.00000  1.0000
  Ga  Ga2       1.0  0.70500  0.00000  0.00000  1.0000
  Ga  Ga3       1.0  0.00000  0.29500  0.00000  1.0000
  Ga  Ga4       1.0  0.00000  0.70500  0.00000  1.0000
  Ga  Ga5       1.0  0.13900  0.13900  0.27900  1.0000
  Ga  Ga6       1.0  0.86100  0.86100  0.72100  1.0000
  K   K1        1.0  0.61000  0.61000  0.21900  1.0000
  K   K2        1.0  0.75000  0.25000  0.50000  1.0000
  K   K3        1.0  0.25000  0.75000  0.50000  1.0000
  K   K4        1.0  0.39000  0.39000  0.78100  1.0000
