data_image0
_chemical_formula_structural       Cd2Sb4Yb4
_chemical_formula_sum              "Cd2 Sb4 Yb4"
_cell_length_a       4.65124
_cell_length_b       7.19929
_cell_length_c       9.02374
_cell_angle_alpha    90
_cell_angle_beta     75.065
_cell_angle_gamma    90

_space_group_name_H-M_alt    "P 1"
_space_group_IT_number       1

loop_
  _space_group_symop_operation_xyz
  'x, y, z'

loop_
  _atom_site_type_symbol
  _atom_site_label
  _atom_site_symmetry_multiplicity
  _atom_site_fract_x
  _atom_site_fract_y
  _atom_site_fract_z
  _atom_site_occupancy
  Cd  Cd1       1.0  0.90100  0.89600  0.19700  1.0000
  Cd  Cd2       1.0  0.09850  0.39600  0.80300  1.0000
  Sb  Sb1       1.0  0.93100  0.49700  0.13700  1.0000
  Sb  Sb2       1.0  0.32000  0.01310  0.36000  1.0000
  Sb  Sb3       1.0  0.68000  0.51300  0.64000  1.0000
  Sb  Sb4       1.0  0.06870  0.99700  0.86300  1.0000
  Yb  Yb1       1.0  0.47900  0.22000  0.04130  1.0000
  Yb  Yb2       1.0  0.30300  0.53200  0.39500  1.0000
  Yb  Yb3       1.0  0.69700  0.03180  0.60500  1.0000
  Yb  Yb4       1.0  0.52100  0.72000  0.95900  1.0000
