data_image0
_chemical_formula_structural       Sn7Tb3
_chemical_formula_sum              "Sn7 Tb3"
_cell_length_a       4.40493
_cell_length_b       4.46462
_cell_length_c       13.4381
_cell_angle_alpha    90
_cell_angle_beta     80.5668
_cell_angle_gamma    90

_space_group_name_H-M_alt    "P 1"
_space_group_IT_number       1

loop_
  _space_group_symop_operation_xyz
  'x, y, z'

loop_
  _atom_site_type_symbol
  _atom_site_label
  _atom_site_symmetry_multiplicity
  _atom_site_fract_x
  _atom_site_fract_y
  _atom_site_fract_z
  _atom_site_occupancy
  Sn  Sn1       1.0  0.50000  0.00000  0.00000  1.0000
  Sn  Sn2       1.0  0.90400  0.00000  0.19200  1.0000
  Sn  Sn3       1.0  0.40400  0.50000  0.19200  1.0000
  Sn  Sn4       1.0  0.78800  0.50000  0.42300  1.0000
  Sn  Sn5       1.0  0.21200  0.50000  0.57700  1.0000
  Sn  Sn6       1.0  0.59600  0.50000  0.80800  1.0000
  Sn  Sn7       1.0  0.09590  0.00000  0.80800  1.0000
  Tb  Tb1       1.0  0.00000  0.50000  0.00000  1.0000
  Tb  Tb2       1.0  0.31200  0.00000  0.37700  1.0000
  Tb  Tb3       1.0  0.68800  0.00000  0.62300  1.0000
