data_image0
_chemical_formula_structural       Pd2Sn8
_chemical_formula_sum              "Pd2 Sn8"
_cell_length_a       6.64763
_cell_length_b       6.47745
_cell_length_c       6.53074
_cell_angle_alpha    90
_cell_angle_beta     119.42
_cell_angle_gamma    90

_space_group_name_H-M_alt    "P 1"
_space_group_IT_number       1

loop_
  _space_group_symop_operation_xyz
  'x, y, z'

loop_
  _atom_site_type_symbol
  _atom_site_label
  _atom_site_symmetry_multiplicity
  _atom_site_fract_x
  _atom_site_fract_y
  _atom_site_fract_z
  _atom_site_occupancy
  Pd  Pd1       1.0  0.00662  0.00000  0.00331  1.0000
  Pd  Pd2       1.0  0.00662  0.50000  0.50300  1.0000
  Sn  Sn1       1.0  0.75500  0.33100  0.04490  1.0000
  Sn  Sn2       1.0  0.75500  0.83100  0.21000  1.0000
  Sn  Sn3       1.0  0.25900  0.67000  0.29900  1.0000
  Sn  Sn4       1.0  0.25900  0.17000  0.46000  1.0000
  Sn  Sn5       1.0  0.75500  0.16900  0.54500  1.0000
  Sn  Sn6       1.0  0.75500  0.66900  0.71000  1.0000
  Sn  Sn7       1.0  0.25900  0.83000  0.79900  1.0000
  Sn  Sn8       1.0  0.25900  0.33000  0.96000  1.0000
