data_image0
_chemical_formula_structural       Ba2IrLaO6
_chemical_formula_sum              "Ba2 Ir1 La1 O6"
_cell_length_a       6.03891
_cell_length_b       6.03891
_cell_length_c       6.0389
_cell_angle_alpha    60.3911
_cell_angle_beta     60.3911
_cell_angle_gamma    60.3911

_space_group_name_H-M_alt    "P 1"
_space_group_IT_number       1

loop_
  _space_group_symop_operation_xyz
  'x, y, z'

loop_
  _atom_site_type_symbol
  _atom_site_label
  _atom_site_symmetry_multiplicity
  _atom_site_fract_x
  _atom_site_fract_y
  _atom_site_fract_z
  _atom_site_occupancy
  Ba  Ba1       1.0  0.25100  0.25100  0.25100  1.0000
  Ba  Ba2       1.0  0.74900  0.74900  0.74900  1.0000
  Ir  Ir1       1.0  0.50000  0.50000  0.50000  1.0000
  La  La1       1.0  0.00000  0.00000  0.00000  1.0000
  O   O1        1.0  0.30000  0.72700  0.24100  1.0000
  O   O2        1.0  0.75900  0.70000  0.27300  1.0000
  O   O3        1.0  0.72700  0.24100  0.30000  1.0000
  O   O4        1.0  0.27300  0.75900  0.70000  1.0000
  O   O5        1.0  0.24100  0.30000  0.72700  1.0000
  O   O6        1.0  0.70000  0.27300  0.75900  1.0000
