data_image0
_chemical_formula_structural       Al2Ce2H4Ir2
_chemical_formula_sum              "Al2 Ce2 H4 Ir2"
_cell_length_a       4.42394
_cell_length_b       4.42402
_cell_length_c       8.45261
_cell_angle_alpha    90
_cell_angle_beta     90
_cell_angle_gamma    119.999

_space_group_name_H-M_alt    "P 1"
_space_group_IT_number       1

loop_
  _space_group_symop_operation_xyz
  'x, y, z'

loop_
  _atom_site_type_symbol
  _atom_site_label
  _atom_site_symmetry_multiplicity
  _atom_site_fract_x
  _atom_site_fract_y
  _atom_site_fract_z
  _atom_site_occupancy
  Al  Al1       1.0  0.66700  0.33300  0.25000  1.0000
  Al  Al2       1.0  0.33300  0.66700  0.75000  1.0000
  Ce  Ce1       1.0  0.00000  0.00000  0.00000  1.0000
  Ce  Ce2       1.0  0.00000  0.00000  0.50000  1.0000
  H   H1        1.0  0.33300  0.66700  0.04830  1.0000
  H   H2        1.0  0.33300  0.66700  0.45200  1.0000
  H   H3        1.0  0.66700  0.33300  0.54800  1.0000
  H   H4        1.0  0.66700  0.33300  0.95200  1.0000
  Ir  Ir1       1.0  0.33300  0.66700  0.25000  1.0000
  Ir  Ir2       1.0  0.66700  0.33300  0.75000  1.0000
