data_image0
_chemical_formula_structural       Lu2Pr2Se6
_chemical_formula_sum              "Lu2 Pr2 Se6"
_cell_length_a       4.03575
_cell_length_b       6.85958
_cell_length_c       9.96925
_cell_angle_alpha    90
_cell_angle_beta     90
_cell_angle_gamma    72.8923

_space_group_name_H-M_alt    "P 1"
_space_group_IT_number       1

loop_
  _space_group_symop_operation_xyz
  'x, y, z'

loop_
  _atom_site_type_symbol
  _atom_site_label
  _atom_site_symmetry_multiplicity
  _atom_site_fract_x
  _atom_site_fract_y
  _atom_site_fract_z
  _atom_site_occupancy
  Lu  Lu1       1.0  0.00000  0.00000  0.00000  1.0000
  Lu  Lu2       1.0  0.00000  0.00000  0.50000  1.0000
  Pr  Pr1       1.0  0.74800  0.50300  0.25000  1.0000
  Pr  Pr2       1.0  0.25200  0.49700  0.75000  1.0000
  Se  Se1       1.0  0.35700  0.28600  0.06140  1.0000
  Se  Se2       1.0  0.08510  0.83000  0.25000  1.0000
  Se  Se3       1.0  0.35700  0.28600  0.43900  1.0000
  Se  Se4       1.0  0.64300  0.71400  0.56100  1.0000
  Se  Se5       1.0  0.91500  0.17000  0.75000  1.0000
  Se  Se6       1.0  0.64300  0.71400  0.93900  1.0000
