data_image0
_chemical_formula_structural       Ge4Ru2Sm4
_chemical_formula_sum              "Ge4 Ru2 Sm4"
_cell_length_a       4.335
_cell_length_b       5.92943
_cell_length_c       9.39485
_cell_angle_alpha    92.5018
_cell_angle_beta     103.339
_cell_angle_gamma    68.5586

_space_group_name_H-M_alt    "P 1"
_space_group_IT_number       1

loop_
  _space_group_symop_operation_xyz
  'x, y, z'

loop_
  _atom_site_type_symbol
  _atom_site_label
  _atom_site_symmetry_multiplicity
  _atom_site_fract_x
  _atom_site_fract_y
  _atom_site_fract_z
  _atom_site_occupancy
  Ge  Ge1       1.0  0.13300  0.86200  0.12700  1.0000
  Ge  Ge2       1.0  0.58300  0.26700  0.43300  1.0000
  Ge  Ge3       1.0  0.41700  0.73300  0.56700  1.0000
  Ge  Ge4       1.0  0.86700  0.13800  0.87300  1.0000
  Ru  Ru1       1.0  0.14900  0.07810  0.37500  1.0000
  Ru  Ru2       1.0  0.85100  0.92200  0.62500  1.0000
  Sm  Sm1       1.0  0.42500  0.26000  0.11000  1.0000
  Sm  Sm2       1.0  0.82800  0.67100  0.32600  1.0000
  Sm  Sm3       1.0  0.17200  0.32900  0.67400  1.0000
  Sm  Sm4       1.0  0.57500  0.74000  0.89000  1.0000
