data_image0
_chemical_formula_structural       Au4Y6
_chemical_formula_sum              "Au4 Y6"
_cell_length_a       8.12751
_cell_length_b       8.12751
_cell_length_c       3.83006
_cell_angle_alpha    90
_cell_angle_beta     90
_cell_angle_gamma    90

_space_group_name_H-M_alt    "P 1"
_space_group_IT_number       1

loop_
  _space_group_symop_operation_xyz
  'x, y, z'

loop_
  _atom_site_type_symbol
  _atom_site_label
  _atom_site_symmetry_multiplicity
  _atom_site_fract_x
  _atom_site_fract_y
  _atom_site_fract_z
  _atom_site_occupancy
  Au  Au1       1.0  0.63400  0.13400  0.00000  1.0000
  Au  Au2       1.0  0.13400  0.36600  0.00000  1.0000
  Au  Au3       1.0  0.86600  0.63400  0.00000  1.0000
  Au  Au4       1.0  0.36600  0.86600  0.00000  1.0000
  Y   Y1        1.0  0.00000  0.00000  0.00000  1.0000
  Y   Y2        1.0  0.50000  0.50000  0.00000  1.0000
  Y   Y3        1.0  0.33800  0.16200  0.50000  1.0000
  Y   Y4        1.0  0.83800  0.33800  0.50000  1.0000
  Y   Y5        1.0  0.16200  0.66200  0.50000  1.0000
  Y   Y6        1.0  0.66200  0.83800  0.50000  1.0000
