data_image0
_chemical_formula_structural       Ga8Pu2
_chemical_formula_sum              "Ga8 Pu2"
_cell_length_a       4.39971
_cell_length_b       6.2478
_cell_length_c       7.88591
_cell_angle_alpha    113.337
_cell_angle_beta     106.198
_cell_angle_gamma    90

_space_group_name_H-M_alt    "P 1"
_space_group_IT_number       1

loop_
  _space_group_symop_operation_xyz
  'x, y, z'

loop_
  _atom_site_type_symbol
  _atom_site_label
  _atom_site_symmetry_multiplicity
  _atom_site_fract_x
  _atom_site_fract_y
  _atom_site_fract_z
  _atom_site_occupancy
  Ga  Ga1       1.0  0.50000  0.00000  0.00000  1.0000
  Ga  Ga2       1.0  0.50000  0.50000  0.00000  1.0000
  Ga  Ga3       1.0  0.10700  0.35700  0.21300  1.0000
  Ga  Ga4       1.0  0.69900  0.22800  0.39800  1.0000
  Ga  Ga5       1.0  0.69900  0.67000  0.39800  1.0000
  Ga  Ga6       1.0  0.30100  0.33000  0.60200  1.0000
  Ga  Ga7       1.0  0.30100  0.77200  0.60200  1.0000
  Ga  Ga8       1.0  0.89300  0.64300  0.78700  1.0000
  Pu  Pu1       1.0  0.11200  0.86200  0.22500  1.0000
  Pu  Pu2       1.0  0.88800  0.13800  0.77500  1.0000
