data_image0
_chemical_formula_structural       Br2Mn2S4Sb2
_chemical_formula_sum              "Br2 Mn2 S4 Sb2"
_cell_length_a       3.85764
_cell_length_b       6.62905
_cell_length_c       9.55993
_cell_angle_alpha    91.438
_cell_angle_beta     90
_cell_angle_gamma    106.916

_space_group_name_H-M_alt    "P 1"
_space_group_IT_number       1

loop_
  _space_group_symop_operation_xyz
  'x, y, z'

loop_
  _atom_site_type_symbol
  _atom_site_label
  _atom_site_symmetry_multiplicity
  _atom_site_fract_x
  _atom_site_fract_y
  _atom_site_fract_z
  _atom_site_occupancy
  Br  Br1       1.0  0.63300  0.26500  0.43100  1.0000
  Br  Br2       1.0  0.36700  0.73500  0.56900  1.0000
  Mn  Mn1       1.0  0.00000  0.00000  0.00000  1.0000
  Mn  Mn2       1.0  0.00000  0.00000  0.50000  1.0000
  S   S1        1.0  0.63800  0.27600  0.05110  1.0000
  S   S2        1.0  0.92600  0.85100  0.24200  1.0000
  S   S3        1.0  0.07430  0.14900  0.75800  1.0000
  S   S4        1.0  0.36200  0.72400  0.94900  1.0000
  Sb  Sb1       1.0  0.29000  0.57900  0.19100  1.0000
  Sb  Sb2       1.0  0.71000  0.42100  0.80900  1.0000
