data_image0
_chemical_formula_structural       Ge6La2V2
_chemical_formula_sum              "Ge6 La2 V2"
_cell_length_a       6.29454
_cell_length_b       6.29474
_cell_length_c       5.65409
_cell_angle_alpha    90
_cell_angle_beta     90
_cell_angle_gamma    119.999

_space_group_name_H-M_alt    "P 1"
_space_group_IT_number       1

loop_
  _space_group_symop_operation_xyz
  'x, y, z'

loop_
  _atom_site_type_symbol
  _atom_site_label
  _atom_site_symmetry_multiplicity
  _atom_site_fract_x
  _atom_site_fract_y
  _atom_site_fract_z
  _atom_site_occupancy
  Ge  Ge1       1.0  0.19300  0.38700  0.25000  1.0000
  Ge  Ge2       1.0  0.19300  0.80700  0.25000  1.0000
  Ge  Ge3       1.0  0.61300  0.80700  0.25000  1.0000
  Ge  Ge4       1.0  0.38700  0.19300  0.75000  1.0000
  Ge  Ge5       1.0  0.80700  0.19300  0.75000  1.0000
  Ge  Ge6       1.0  0.80700  0.61300  0.75000  1.0000
  La  La1       1.0  0.66700  0.33300  0.25000  1.0000
  La  La2       1.0  0.33300  0.66700  0.75000  1.0000
  V   V1        1.0  0.00000  0.00000  0.00000  1.0000
  V   V2        1.0  0.00000  0.00000  0.50000  1.0000
