data_image0
_chemical_formula_structural       Ca4Ir4Si2
_chemical_formula_sum              "Ca4 Ir4 Si2"
_cell_length_a       5.71787
_cell_length_b       5.71787
_cell_length_c       7.3471
_cell_angle_alpha    98.861
_cell_angle_beta     98.861
_cell_angle_gamma    61.367

_space_group_name_H-M_alt    "P 1"
_space_group_IT_number       1

loop_
  _space_group_symop_operation_xyz
  'x, y, z'

loop_
  _atom_site_type_symbol
  _atom_site_label
  _atom_site_symmetry_multiplicity
  _atom_site_fract_x
  _atom_site_fract_y
  _atom_site_fract_z
  _atom_site_occupancy
  Ca  Ca1       1.0  0.27600  0.01410  0.13900  1.0000
  Ca  Ca2       1.0  0.98600  0.72400  0.36100  1.0000
  Ca  Ca3       1.0  0.01410  0.27600  0.63900  1.0000
  Ca  Ca4       1.0  0.72400  0.98600  0.86100  1.0000
  Ir  Ir1       1.0  0.77600  0.49100  0.01060  1.0000
  Ir  Ir2       1.0  0.50900  0.22400  0.48900  1.0000
  Ir  Ir3       1.0  0.49100  0.77600  0.51100  1.0000
  Ir  Ir4       1.0  0.22400  0.50900  0.98900  1.0000
  Si  Si1       1.0  0.56200  0.43800  0.25000  1.0000
  Si  Si2       1.0  0.43800  0.56200  0.75000  1.0000
