data_image0
_chemical_formula_structural       Cr2Nd2O2S4
_chemical_formula_sum              "Cr2 Nd2 O2 S4"
_cell_length_a       3.71502
_cell_length_b       6.07751
_cell_length_c       7.9493
_cell_angle_alpha    89.8824
_cell_angle_beta     90
_cell_angle_gamma    107.797

_space_group_name_H-M_alt    "P 1"
_space_group_IT_number       1

loop_
  _space_group_symop_operation_xyz
  'x, y, z'

loop_
  _atom_site_type_symbol
  _atom_site_label
  _atom_site_symmetry_multiplicity
  _atom_site_fract_x
  _atom_site_fract_y
  _atom_site_fract_z
  _atom_site_occupancy
  Cr  Cr1       1.0  0.00000  0.00000  0.00000  1.0000
  Cr  Cr2       1.0  0.50000  0.00000  0.50000  1.0000
  Nd  Nd1       1.0  0.73500  0.46900  0.20700  1.0000
  Nd  Nd2       1.0  0.26500  0.53100  0.79300  1.0000
  O   O1        1.0  0.16700  0.33400  0.06120  1.0000
  O   O2        1.0  0.83300  0.66600  0.93900  1.0000
  S   S1        1.0  0.45500  0.91000  0.19900  1.0000
  S   S2        1.0  0.13700  0.27500  0.47000  1.0000
  S   S3        1.0  0.86300  0.72500  0.53000  1.0000
  S   S4        1.0  0.54500  0.08990  0.80100  1.0000
