data_image0
_chemical_formula_structural       C2P2Ru4Sm2
_chemical_formula_sum              "C2 P2 Ru4 Sm2"
_cell_length_a       3.85362
_cell_length_b       5.84106
_cell_length_c       7.13879
_cell_angle_alpha    90
_cell_angle_beta     90
_cell_angle_gamma    70.7389

_space_group_name_H-M_alt    "P 1"
_space_group_IT_number       1

loop_
  _space_group_symop_operation_xyz
  'x, y, z'

loop_
  _atom_site_type_symbol
  _atom_site_label
  _atom_site_symmetry_multiplicity
  _atom_site_fract_x
  _atom_site_fract_y
  _atom_site_fract_z
  _atom_site_occupancy
  C   C1        1.0  0.50000  0.00000  0.00000  1.0000
  C   C2        1.0  0.50000  0.00000  0.50000  1.0000
  P   P1        1.0  0.23000  0.54100  0.25000  1.0000
  P   P2        1.0  0.77000  0.45900  0.75000  1.0000
  Ru  Ru1       1.0  0.66700  0.66600  0.05480  1.0000
  Ru  Ru2       1.0  0.66700  0.66600  0.44500  1.0000
  Ru  Ru3       1.0  0.33300  0.33400  0.55500  1.0000
  Ru  Ru4       1.0  0.33300  0.33400  0.94500  1.0000
  Sm  Sm1       1.0  0.95400  0.09200  0.25000  1.0000
  Sm  Sm2       1.0  0.04600  0.90800  0.75000  1.0000
