data_image0
_chemical_formula_structural       Br2Cd2S4Sb2
_chemical_formula_sum              "Br2 Cd2 S4 Sb2"
_cell_length_a       3.96386
_cell_length_b       6.8493
_cell_length_c       9.76662
_cell_angle_alpha    91.26
_cell_angle_beta     90
_cell_angle_gamma    106.82

_space_group_name_H-M_alt    "P 1"
_space_group_IT_number       1

loop_
  _space_group_symop_operation_xyz
  'x, y, z'

loop_
  _atom_site_type_symbol
  _atom_site_label
  _atom_site_symmetry_multiplicity
  _atom_site_fract_x
  _atom_site_fract_y
  _atom_site_fract_z
  _atom_site_occupancy
  Br  Br1       1.0  0.36500  0.72900  0.07590  1.0000
  Br  Br2       1.0  0.63500  0.27100  0.92400  1.0000
  Cd  Cd1       1.0  0.00000  0.00000  0.00000  1.0000
  Cd  Cd2       1.0  0.00000  0.00000  0.50000  1.0000
  S   S1        1.0  0.08590  0.17200  0.26100  1.0000
  S   S2        1.0  0.35300  0.70700  0.44800  1.0000
  S   S3        1.0  0.64700  0.29300  0.55200  1.0000
  S   S4        1.0  0.91400  0.82800  0.73900  1.0000
  Sb  Sb1       1.0  0.71500  0.43100  0.31500  1.0000
  Sb  Sb2       1.0  0.28500  0.56900  0.68500  1.0000
