data_image0
_chemical_formula_structural       Gd4Ge4In2
_chemical_formula_sum              "Gd4 Ge4 In2"
_cell_length_a       7.43323
_cell_length_b       7.43323
_cell_length_c       4.24458
_cell_angle_alpha    90
_cell_angle_beta     90
_cell_angle_gamma    90

_space_group_name_H-M_alt    "P 1"
_space_group_IT_number       1

loop_
  _space_group_symop_operation_xyz
  'x, y, z'

loop_
  _atom_site_type_symbol
  _atom_site_label
  _atom_site_symmetry_multiplicity
  _atom_site_fract_x
  _atom_site_fract_y
  _atom_site_fract_z
  _atom_site_occupancy
  Gd  Gd1       1.0  0.32100  0.17900  0.50000  1.0000
  Gd  Gd2       1.0  0.82100  0.32100  0.50000  1.0000
  Gd  Gd3       1.0  0.17900  0.67900  0.50000  1.0000
  Gd  Gd4       1.0  0.67900  0.82100  0.50000  1.0000
  Ge  Ge1       1.0  0.62100  0.12100  0.00000  1.0000
  Ge  Ge2       1.0  0.12100  0.37900  0.00000  1.0000
  Ge  Ge3       1.0  0.87900  0.62100  0.00000  1.0000
  Ge  Ge4       1.0  0.37900  0.87900  0.00000  1.0000
  In  In1       1.0  0.00000  0.00000  0.00000  1.0000
  In  In2       1.0  0.50000  0.50000  0.00000  1.0000
