data_image0
_chemical_formula_structural       In2Pd4Sr4
_chemical_formula_sum              "In2 Pd4 Sr4"
_cell_length_a       6.05164
_cell_length_b       6.06758
_cell_length_c       8.37945
_cell_angle_alpha    101.924
_cell_angle_beta     90
_cell_angle_gamma    119.913

_space_group_name_H-M_alt    "P 1"
_space_group_IT_number       1

loop_
  _space_group_symop_operation_xyz
  'x, y, z'

loop_
  _atom_site_type_symbol
  _atom_site_label
  _atom_site_symmetry_multiplicity
  _atom_site_fract_x
  _atom_site_fract_y
  _atom_site_fract_z
  _atom_site_occupancy
  In  In1       1.0  0.13700  0.00000  0.25000  1.0000
  In  In2       1.0  0.86300  0.00000  0.75000  1.0000
  Pd  Pd1       1.0  0.27100  0.26800  0.00297  1.0000
  Pd  Pd2       1.0  0.00252  0.73200  0.49700  1.0000
  Pd  Pd3       1.0  0.99700  0.26800  0.50300  1.0000
  Pd  Pd4       1.0  0.72900  0.73200  0.99700  1.0000
  Sr  Sr1       1.0  0.78800  0.29700  0.14800  1.0000
  Sr  Sr2       1.0  0.49100  0.70300  0.35200  1.0000
  Sr  Sr3       1.0  0.50900  0.29700  0.64800  1.0000
  Sr  Sr4       1.0  0.21200  0.70300  0.85200  1.0000
