data_image0
_chemical_formula_structural       Ag4Hg2S4
_chemical_formula_sum              "Ag4 Hg2 S4"
_cell_length_a       4.17217
_cell_length_b       8.0442
_cell_length_c       6.68627
_cell_angle_alpha    90
_cell_angle_beta     108.792
_cell_angle_gamma    90

_space_group_name_H-M_alt    "P 1"
_space_group_IT_number       1

loop_
  _space_group_symop_operation_xyz
  'x, y, z'

loop_
  _atom_site_type_symbol
  _atom_site_label
  _atom_site_symmetry_multiplicity
  _atom_site_fract_x
  _atom_site_fract_y
  _atom_site_fract_z
  _atom_site_occupancy
  Ag  Ag1       1.0  0.37600  0.65100  0.09290  1.0000
  Ag  Ag2       1.0  0.62400  0.15100  0.40700  1.0000
  Ag  Ag3       1.0  0.37600  0.84900  0.59300  1.0000
  Ag  Ag4       1.0  0.62400  0.34900  0.90700  1.0000
  Hg  Hg1       1.0  0.00000  0.00000  0.00000  1.0000
  Hg  Hg2       1.0  0.00000  0.50000  0.50000  1.0000
  S   S1        1.0  0.20000  0.37300  0.23200  1.0000
  S   S2        1.0  0.80000  0.87300  0.26800  1.0000
  S   S3        1.0  0.20000  0.12700  0.73200  1.0000
  S   S4        1.0  0.80000  0.62700  0.76800  1.0000
