data_image0
_chemical_formula_structural       La2Re4Si4
_chemical_formula_sum              "La2 Re4 Si4"
_cell_length_a       4.1557
_cell_length_b       4.24417
_cell_length_c       10.939
_cell_angle_alpha    101.186
_cell_angle_beta     100.95
_cell_angle_gamma    90

_space_group_name_H-M_alt    "P 1"
_space_group_IT_number       1

loop_
  _space_group_symop_operation_xyz
  'x, y, z'

loop_
  _atom_site_type_symbol
  _atom_site_label
  _atom_site_symmetry_multiplicity
  _atom_site_fract_x
  _atom_site_fract_y
  _atom_site_fract_z
  _atom_site_occupancy
  La  La1       1.0  0.83700  0.08700  0.17400  1.0000
  La  La2       1.0  0.16300  0.91300  0.82600  1.0000
  Re  Re1       1.0  0.46200  0.21200  0.42300  1.0000
  Re  Re2       1.0  0.96500  0.71500  0.43000  1.0000
  Re  Re3       1.0  0.03520  0.28500  0.57000  1.0000
  Re  Re4       1.0  0.53800  0.78800  0.57700  1.0000
  Si  Si1       1.0  0.27900  0.52900  0.05700  1.0000
  Si  Si2       1.0  0.39600  0.64600  0.29200  1.0000
  Si  Si3       1.0  0.60400  0.35400  0.70800  1.0000
  Si  Si4       1.0  0.72100  0.47100  0.94300  1.0000
