data_image0
_chemical_formula_structural       Cl8Pb2
_chemical_formula_sum              "Cl8 Pb2"
_cell_length_a       5.4365
_cell_length_b       6.67763
_cell_length_c       10.0506
_cell_angle_alpha    90.7116
_cell_angle_beta     105.691
_cell_angle_gamma    114.021

_space_group_name_H-M_alt    "P 1"
_space_group_IT_number       1

loop_
  _space_group_symop_operation_xyz
  'x, y, z'

loop_
  _atom_site_type_symbol
  _atom_site_label
  _atom_site_symmetry_multiplicity
  _atom_site_fract_x
  _atom_site_fract_y
  _atom_site_fract_z
  _atom_site_occupancy
  Cl  Cl1       1.0  0.69600  0.31500  0.05460  1.0000
  Cl  Cl2       1.0  0.05980  0.92700  0.18700  1.0000
  Cl  Cl3       1.0  0.44600  0.57300  0.31300  1.0000
  Cl  Cl4       1.0  0.82600  0.18500  0.44500  1.0000
  Cl  Cl5       1.0  0.17400  0.81500  0.55500  1.0000
  Cl  Cl6       1.0  0.55400  0.42700  0.68700  1.0000
  Cl  Cl7       1.0  0.94000  0.07330  0.81300  1.0000
  Cl  Cl8       1.0  0.30400  0.68500  0.94500  1.0000
  Pb  Pb1       1.0  0.50800  0.25000  0.25000  1.0000
  Pb  Pb2       1.0  0.49200  0.75000  0.75000  1.0000
