data_image0
_chemical_formula_structural       Ba2Tl8
_chemical_formula_sum              "Ba2 Tl8"
_cell_length_a       5.40905
_cell_length_b       6.80572
_cell_length_c       9.95075
_cell_angle_alpha    92.3718
_cell_angle_beta     105.771
_cell_angle_gamma    113.415

_space_group_name_H-M_alt    "P 1"
_space_group_IT_number       1

loop_
  _space_group_symop_operation_xyz
  'x, y, z'

loop_
  _atom_site_type_symbol
  _atom_site_label
  _atom_site_symmetry_multiplicity
  _atom_site_fract_x
  _atom_site_fract_y
  _atom_site_fract_z
  _atom_site_occupancy
  Ba  Ba1       1.0  0.46900  0.65100  0.28800  1.0000
  Ba  Ba2       1.0  0.53100  0.34900  0.71200  1.0000
  Tl  Tl1       1.0  0.88600  0.73100  0.04120  1.0000
  Tl  Tl2       1.0  0.66800  0.21800  0.11800  1.0000
  Tl  Tl3       1.0  0.19600  0.07270  0.31900  1.0000
  Tl  Tl4       1.0  0.85400  0.25500  0.45300  1.0000
  Tl  Tl5       1.0  0.14600  0.74500  0.54700  1.0000
  Tl  Tl6       1.0  0.80400  0.92700  0.68100  1.0000
  Tl  Tl7       1.0  0.33200  0.78200  0.88200  1.0000
  Tl  Tl8       1.0  0.11400  0.26900  0.95900  1.0000
