data_image0
_chemical_formula_structural       Bi2Cd2Cl2O4
_chemical_formula_sum              "Bi2 Cd2 Cl2 O4"
_cell_length_a       7.6167
_cell_length_b       4.16792
_cell_length_c       6.08934
_cell_angle_alpha    90
_cell_angle_beta     101.476
_cell_angle_gamma    90

_space_group_name_H-M_alt    "P 1"
_space_group_IT_number       1

loop_
  _space_group_symop_operation_xyz
  'x, y, z'

loop_
  _atom_site_type_symbol
  _atom_site_label
  _atom_site_symmetry_multiplicity
  _atom_site_fract_x
  _atom_site_fract_y
  _atom_site_fract_z
  _atom_site_occupancy
  Bi  Bi1       1.0  0.59500  0.25000  0.30700  1.0000
  Bi  Bi2       1.0  0.40500  0.75000  0.69300  1.0000
  Cd  Cd1       1.0  0.09230  0.25000  0.33600  1.0000
  Cd  Cd2       1.0  0.90800  0.75000  0.66400  1.0000
  Cl  Cl1       1.0  0.81200  0.75000  0.04040  1.0000
  Cl  Cl2       1.0  0.18800  0.25000  0.96000  1.0000
  O   O1        1.0  0.59200  0.75000  0.45400  1.0000
  O   O2        1.0  0.14600  0.75000  0.48700  1.0000
  O   O3        1.0  0.85400  0.25000  0.51300  1.0000
  O   O4        1.0  0.40800  0.25000  0.54600  1.0000
