data_image0
_chemical_formula_structural       GeO5Pb3
_chemical_formula_sum              "Ge1 O5 Pb3"
_cell_length_a       5.29385
_cell_length_b       5.30959
_cell_length_c       5.30473
_cell_angle_alpha    90
_cell_angle_beta     90
_cell_angle_gamma    89.6006

_space_group_name_H-M_alt    "P 1"
_space_group_IT_number       1

loop_
  _space_group_symop_operation_xyz
  'x, y, z'

loop_
  _atom_site_type_symbol
  _atom_site_label
  _atom_site_symmetry_multiplicity
  _atom_site_fract_x
  _atom_site_fract_y
  _atom_site_fract_z
  _atom_site_occupancy
  Ge  Ge1       1.0  0.50000  0.00000  0.51700  1.0000
  O   O1        1.0  0.30700  0.19100  0.32600  1.0000
  O   O2        1.0  0.69300  0.80900  0.32600  1.0000
  O   O3        1.0  0.68900  0.19000  0.70800  1.0000
  O   O4        1.0  0.31100  0.81000  0.70800  1.0000
  O   O5        1.0  0.00000  0.50000  0.99900  1.0000
  Pb  Pb1       1.0  0.00000  0.00000  0.01820  1.0000
  Pb  Pb2       1.0  0.50000  0.50000  0.01930  1.0000
  Pb  Pb3       1.0  0.00000  0.50000  0.52800  1.0000
