data_image0
_chemical_formula_structural       Au4Ba2Sb4
_chemical_formula_sum              "Au4 Ba2 Sb4"
_cell_length_a       4.95735
_cell_length_b       4.83916
_cell_length_c       11.2242
_cell_angle_alpha    90
_cell_angle_beta     91.1634
_cell_angle_gamma    90

_space_group_name_H-M_alt    "P 1"
_space_group_IT_number       1

loop_
  _space_group_symop_operation_xyz
  'x, y, z'

loop_
  _atom_site_type_symbol
  _atom_site_label
  _atom_site_symmetry_multiplicity
  _atom_site_fract_x
  _atom_site_fract_y
  _atom_site_fract_z
  _atom_site_occupancy
  Au  Au1       1.0  0.31100  0.75000  0.00086  1.0000
  Au  Au2       1.0  0.25200  0.25000  0.36600  1.0000
  Au  Au3       1.0  0.74800  0.75000  0.63400  1.0000
  Au  Au4       1.0  0.68900  0.25000  0.99900  1.0000
  Ba  Ba1       1.0  0.73800  0.75000  0.24400  1.0000
  Ba  Ba2       1.0  0.26200  0.25000  0.75600  1.0000
  Sb  Sb1       1.0  0.19500  0.25000  0.12400  1.0000
  Sb  Sb2       1.0  0.75300  0.25000  0.49900  1.0000
  Sb  Sb3       1.0  0.24700  0.75000  0.50100  1.0000
  Sb  Sb4       1.0  0.80500  0.75000  0.87600  1.0000
