data_image0
_chemical_formula_structural       Dy4Mg2Si4
_chemical_formula_sum              "Dy4 Mg2 Si4"
_cell_length_a       7.16675
_cell_length_b       7.16675
_cell_length_c       4.20847
_cell_angle_alpha    90
_cell_angle_beta     90
_cell_angle_gamma    90

_space_group_name_H-M_alt    "P 1"
_space_group_IT_number       1

loop_
  _space_group_symop_operation_xyz
  'x, y, z'

loop_
  _atom_site_type_symbol
  _atom_site_label
  _atom_site_symmetry_multiplicity
  _atom_site_fract_x
  _atom_site_fract_y
  _atom_site_fract_z
  _atom_site_occupancy
  Dy  Dy1       1.0  0.32200  0.17800  0.50000  1.0000
  Dy  Dy2       1.0  0.82200  0.32200  0.50000  1.0000
  Dy  Dy3       1.0  0.17800  0.67800  0.50000  1.0000
  Dy  Dy4       1.0  0.67800  0.82200  0.50000  1.0000
  Mg  Mg1       1.0  0.00000  0.00000  0.00000  1.0000
  Mg  Mg2       1.0  0.50000  0.50000  0.00000  1.0000
  Si  Si1       1.0  0.61800  0.11800  0.00000  1.0000
  Si  Si2       1.0  0.11800  0.38200  0.00000  1.0000
  Si  Si3       1.0  0.88200  0.61800  0.00000  1.0000
  Si  Si4       1.0  0.38200  0.88200  0.00000  1.0000
