data_image0
_chemical_formula_structural       Al8Np2
_chemical_formula_sum              "Al8 Np2"
_cell_length_a       4.38428
_cell_length_b       6.20118
_cell_length_c       7.90529
_cell_angle_alpha    113.093
_cell_angle_beta     106.099
_cell_angle_gamma    90

_space_group_name_H-M_alt    "P 1"
_space_group_IT_number       1

loop_
  _space_group_symop_operation_xyz
  'x, y, z'

loop_
  _atom_site_type_symbol
  _atom_site_label
  _atom_site_symmetry_multiplicity
  _atom_site_fract_x
  _atom_site_fract_y
  _atom_site_fract_z
  _atom_site_occupancy
  Al  Al1       1.0  0.00000  0.00000  0.00000  1.0000
  Al  Al2       1.0  0.00000  0.50000  0.00000  1.0000
  Al  Al3       1.0  0.61100  0.36100  0.22200  1.0000
  Al  Al4       1.0  0.19800  0.22100  0.39600  1.0000
  Al  Al5       1.0  0.19800  0.67600  0.39600  1.0000
  Al  Al6       1.0  0.80200  0.32400  0.60400  1.0000
  Al  Al7       1.0  0.80200  0.77900  0.60400  1.0000
  Al  Al8       1.0  0.38900  0.63900  0.77800  1.0000
  Np  Np1       1.0  0.61100  0.86100  0.22100  1.0000
  Np  Np2       1.0  0.38900  0.13900  0.77900  1.0000
