data_image0
_chemical_formula_structural       AgBC4N4
_chemical_formula_sum              "Ag1 B1 C4 N4"
_cell_length_a       5.6962
_cell_length_b       5.6962
_cell_length_c       5.6962
_cell_angle_alpha    90
_cell_angle_beta     90
_cell_angle_gamma    90

_space_group_name_H-M_alt    "P 1"
_space_group_IT_number       1

loop_
  _space_group_symop_operation_xyz
  'x, y, z'

loop_
  _atom_site_type_symbol
  _atom_site_label
  _atom_site_symmetry_multiplicity
  _atom_site_fract_x
  _atom_site_fract_y
  _atom_site_fract_z
  _atom_site_occupancy
  Ag  Ag1       1.0  0.50000  0.50000  0.50000  1.0000
  B   B1        1.0  0.00000  0.00000  0.00000  1.0000
  C   C1        1.0  0.84000  0.16000  0.16000  1.0000
  C   C2        1.0  0.16000  0.84000  0.16000  1.0000
  C   C3        1.0  0.16000  0.16000  0.84000  1.0000
  C   C4        1.0  0.84000  0.84000  0.84000  1.0000
  N   N1        1.0  0.72300  0.27700  0.27700  1.0000
  N   N2        1.0  0.27700  0.72300  0.27700  1.0000
  N   N3        1.0  0.27700  0.27700  0.72300  1.0000
  N   N4        1.0  0.72300  0.72300  0.72300  1.0000
