data_image0
_chemical_formula_structural       Bi4Cs6
_chemical_formula_sum              "Bi4 Cs6"
_cell_length_a       7.26651
_cell_length_b       7.26651
_cell_length_c       10.2013
_cell_angle_alpha    100.265
_cell_angle_beta     100.265
_cell_angle_gamma    91.5379

_space_group_name_H-M_alt    "P 1"
_space_group_IT_number       1

loop_
  _space_group_symop_operation_xyz
  'x, y, z'

loop_
  _atom_site_type_symbol
  _atom_site_label
  _atom_site_symmetry_multiplicity
  _atom_site_fract_x
  _atom_site_fract_y
  _atom_site_fract_z
  _atom_site_occupancy
  Bi  Bi1       1.0  0.87800  0.31300  0.16100  1.0000
  Bi  Bi2       1.0  0.68700  0.12200  0.33900  1.0000
  Bi  Bi3       1.0  0.31300  0.87800  0.66100  1.0000
  Bi  Bi4       1.0  0.12200  0.68700  0.83900  1.0000
  Cs  Cs1       1.0  0.33600  0.24100  0.01510  1.0000
  Cs  Cs2       1.0  0.16100  0.83900  0.25000  1.0000
  Cs  Cs3       1.0  0.75900  0.66400  0.48500  1.0000
  Cs  Cs4       1.0  0.24100  0.33600  0.51500  1.0000
  Cs  Cs5       1.0  0.83900  0.16100  0.75000  1.0000
  Cs  Cs6       1.0  0.66400  0.75900  0.98500  1.0000
