data_image0
_chemical_formula_structural       Ba2NbO6Pr
_chemical_formula_sum              "Ba2 Nb1 O6 Pr1"
_cell_length_a       6.07312
_cell_length_b       6.07312
_cell_length_c       6.07312
_cell_angle_alpha    60.5359
_cell_angle_beta     60.5359
_cell_angle_gamma    60.5359

_space_group_name_H-M_alt    "P 1"
_space_group_IT_number       1

loop_
  _space_group_symop_operation_xyz
  'x, y, z'

loop_
  _atom_site_type_symbol
  _atom_site_label
  _atom_site_symmetry_multiplicity
  _atom_site_fract_x
  _atom_site_fract_y
  _atom_site_fract_z
  _atom_site_occupancy
  Ba  Ba1       1.0  0.25100  0.25100  0.25100  1.0000
  Ba  Ba2       1.0  0.74900  0.74900  0.74900  1.0000
  Nb  Nb1       1.0  0.50000  0.50000  0.50000  1.0000
  O   O1        1.0  0.32700  0.72700  0.21200  1.0000
  O   O2        1.0  0.78800  0.67300  0.27300  1.0000
  O   O3        1.0  0.72700  0.21200  0.32700  1.0000
  O   O4        1.0  0.27300  0.78800  0.67300  1.0000
  O   O5        1.0  0.21200  0.32700  0.72700  1.0000
  O   O6        1.0  0.67300  0.27300  0.78800  1.0000
  Pr  Pr1       1.0  0.00000  0.00000  0.00000  1.0000
