data_image0
_chemical_formula_structural       In6Rb4
_chemical_formula_sum              "In6 Rb4"
_cell_length_a       6.94129
_cell_length_b       6.94129
_cell_length_c       9.3344
_cell_angle_alpha    111.827
_cell_angle_beta     111.827
_cell_angle_gamma    90

_space_group_name_H-M_alt    "P 1"
_space_group_IT_number       1

loop_
  _space_group_symop_operation_xyz
  'x, y, z'

loop_
  _atom_site_type_symbol
  _atom_site_label
  _atom_site_symmetry_multiplicity
  _atom_site_fract_x
  _atom_site_fract_y
  _atom_site_fract_z
  _atom_site_occupancy
  In  In1       1.0  0.29600  0.00000  0.00000  1.0000
  In  In2       1.0  0.70400  0.00000  0.00000  1.0000
  In  In3       1.0  0.00000  0.29600  0.00000  1.0000
  In  In4       1.0  0.00000  0.70400  0.00000  1.0000
  In  In5       1.0  0.14900  0.14900  0.29800  1.0000
  In  In6       1.0  0.85100  0.85100  0.70200  1.0000
  Rb  Rb1       1.0  0.61000  0.61000  0.22100  1.0000
  Rb  Rb2       1.0  0.75000  0.25000  0.50000  1.0000
  Rb  Rb3       1.0  0.25000  0.75000  0.50000  1.0000
  Rb  Rb4       1.0  0.39000  0.39000  0.77900  1.0000
