data_image0
_chemical_formula_structural       Ca2In4P4
_chemical_formula_sum              "Ca2 In4 P4"
_cell_length_a       4.08604
_cell_length_b       4.08585
_cell_length_c       17.6822
_cell_angle_alpha    90
_cell_angle_beta     90
_cell_angle_gamma    120.002

_space_group_name_H-M_alt    "P 1"
_space_group_IT_number       1

loop_
  _space_group_symop_operation_xyz
  'x, y, z'

loop_
  _atom_site_type_symbol
  _atom_site_label
  _atom_site_symmetry_multiplicity
  _atom_site_fract_x
  _atom_site_fract_y
  _atom_site_fract_z
  _atom_site_occupancy
  Ca  Ca1       1.0  0.00000  0.00000  0.00000  1.0000
  Ca  Ca2       1.0  0.00000  0.00000  0.50000  1.0000
  In  In1       1.0  0.66700  0.33300  0.17100  1.0000
  In  In2       1.0  0.66700  0.33300  0.32900  1.0000
  In  In3       1.0  0.33300  0.66700  0.67100  1.0000
  In  In4       1.0  0.33300  0.66700  0.82900  1.0000
  P   P1        1.0  0.33300  0.66700  0.10300  1.0000
  P   P2        1.0  0.33300  0.66700  0.39700  1.0000
  P   P3        1.0  0.66700  0.33300  0.60300  1.0000
  P   P4        1.0  0.66700  0.33300  0.89700  1.0000
