data_image0
_chemical_formula_structural       Ca4Cd2P4
_chemical_formula_sum              "Ca4 Cd2 P4"
_cell_length_a       4.19965
_cell_length_b       7.05466
_cell_length_c       8.2997
_cell_angle_alpha    90
_cell_angle_beta     75.3449
_cell_angle_gamma    90

_space_group_name_H-M_alt    "P 1"
_space_group_IT_number       1

loop_
  _space_group_symop_operation_xyz
  'x, y, z'

loop_
  _atom_site_type_symbol
  _atom_site_label
  _atom_site_symmetry_multiplicity
  _atom_site_fract_x
  _atom_site_fract_y
  _atom_site_fract_z
  _atom_site_occupancy
  Ca  Ca1       1.0  0.46500  0.23000  0.07080  1.0000
  Ca  Ca2       1.0  0.29900  0.57400  0.40100  1.0000
  Ca  Ca3       1.0  0.70100  0.07440  0.59900  1.0000
  Ca  Ca4       1.0  0.53500  0.73000  0.92900  1.0000
  Cd  Cd1       1.0  0.90100  0.89200  0.19800  1.0000
  Cd  Cd2       1.0  0.09910  0.39200  0.80200  1.0000
  P   P1        1.0  0.93700  0.52000  0.12600  1.0000
  P   P2        1.0  0.31900  0.99600  0.36200  1.0000
  P   P3        1.0  0.68100  0.49600  0.63800  1.0000
  P   P4        1.0  0.06310  0.01970  0.87400  1.0000
