data_image0
_chemical_formula_structural       Br6Cs2Fe2
_chemical_formula_sum              "Br6 Cs2 Fe2"
_cell_length_a       7.68333
_cell_length_b       7.66953
_cell_length_c       6.22964
_cell_angle_alpha    90
_cell_angle_beta     90
_cell_angle_gamma    119.944

_space_group_name_H-M_alt    "P 1"
_space_group_IT_number       1

loop_
  _space_group_symop_operation_xyz
  'x, y, z'

loop_
  _atom_site_type_symbol
  _atom_site_label
  _atom_site_symmetry_multiplicity
  _atom_site_fract_x
  _atom_site_fract_y
  _atom_site_fract_z
  _atom_site_occupancy
  Br  Br1       1.0  0.15900  0.31900  0.25000  1.0000
  Br  Br2       1.0  0.68100  0.84000  0.25000  1.0000
  Br  Br3       1.0  0.15900  0.84000  0.25000  1.0000
  Br  Br4       1.0  0.84100  0.16000  0.75000  1.0000
  Br  Br5       1.0  0.31900  0.16000  0.75000  1.0000
  Br  Br6       1.0  0.84100  0.68100  0.75000  1.0000
  Cs  Cs1       1.0  0.66700  0.33300  0.25000  1.0000
  Cs  Cs2       1.0  0.33300  0.66700  0.75000  1.0000
  Fe  Fe1       1.0  0.00000  0.00000  0.00000  1.0000
  Fe  Fe2       1.0  0.00000  0.00000  0.50000  1.0000
