data_image0
_chemical_formula_structural       Cl2F2O2Pb4
_chemical_formula_sum              "Cl2 F2 O2 Pb4"
_cell_length_a       5.74368
_cell_length_b       5.73496
_cell_length_c       6.87686
_cell_angle_alpha    65.3563
_cell_angle_beta     90
_cell_angle_gamma    90

_space_group_name_H-M_alt    "P 1"
_space_group_IT_number       1

loop_
  _space_group_symop_operation_xyz
  'x, y, z'

loop_
  _atom_site_type_symbol
  _atom_site_label
  _atom_site_symmetry_multiplicity
  _atom_site_fract_x
  _atom_site_fract_y
  _atom_site_fract_z
  _atom_site_occupancy
  Cl  Cl1       1.0  0.78000  0.25000  0.00000  1.0000
  Cl  Cl2       1.0  0.22000  0.75000  0.00000  1.0000
  F   F1        1.0  0.50000  0.25000  0.50000  1.0000
  F   F2        1.0  0.50000  0.75000  0.50000  1.0000
  O   O1        1.0  0.00000  0.25000  0.50000  1.0000
  O   O2        1.0  0.00000  0.75000  0.50000  1.0000
  Pb  Pb1       1.0  0.22200  0.10500  0.28900  1.0000
  Pb  Pb2       1.0  0.77800  0.60500  0.28900  1.0000
  Pb  Pb3       1.0  0.22200  0.39500  0.71100  1.0000
  Pb  Pb4       1.0  0.77800  0.89500  0.71100  1.0000
