data_image0
_chemical_formula_structural       La2Zn8
_chemical_formula_sum              "La2 Zn8"
_cell_length_a       6.01451
_cell_length_b       6.01451
_cell_length_c       6.08241
_cell_angle_alpha    90
_cell_angle_beta     90
_cell_angle_gamma    116.846

_space_group_name_H-M_alt    "P 1"
_space_group_IT_number       1

loop_
  _space_group_symop_operation_xyz
  'x, y, z'

loop_
  _atom_site_type_symbol
  _atom_site_label
  _atom_site_symmetry_multiplicity
  _atom_site_fract_x
  _atom_site_fract_y
  _atom_site_fract_z
  _atom_site_occupancy
  La  La1       1.0  0.26600  0.73400  0.25000  1.0000
  La  La2       1.0  0.73400  0.26600  0.75000  1.0000
  Zn  Zn1       1.0  0.21900  0.21900  0.00000  1.0000
  Zn  Zn2       1.0  0.78100  0.78100  0.00000  1.0000
  Zn  Zn3       1.0  0.85100  0.14900  0.25000  1.0000
  Zn  Zn4       1.0  0.60900  0.39100  0.25000  1.0000
  Zn  Zn5       1.0  0.21900  0.21900  0.50000  1.0000
  Zn  Zn6       1.0  0.78100  0.78100  0.50000  1.0000
  Zn  Zn7       1.0  0.39100  0.60900  0.75000  1.0000
  Zn  Zn8       1.0  0.14900  0.85100  0.75000  1.0000
