data_image0
_chemical_formula_structural       Cu4Mg2Y4
_chemical_formula_sum              "Cu4 Mg2 Y4"
_cell_length_a       7.60433
_cell_length_b       7.60433
_cell_length_c       3.73081
_cell_angle_alpha    90
_cell_angle_beta     90
_cell_angle_gamma    90

_space_group_name_H-M_alt    "P 1"
_space_group_IT_number       1

loop_
  _space_group_symop_operation_xyz
  'x, y, z'

loop_
  _atom_site_type_symbol
  _atom_site_label
  _atom_site_symmetry_multiplicity
  _atom_site_fract_x
  _atom_site_fract_y
  _atom_site_fract_z
  _atom_site_occupancy
  Cu  Cu1       1.0  0.37800  0.12200  0.00000  1.0000
  Cu  Cu2       1.0  0.87800  0.37800  0.00000  1.0000
  Cu  Cu3       1.0  0.12200  0.62200  0.00000  1.0000
  Cu  Cu4       1.0  0.62200  0.87800  0.00000  1.0000
  Mg  Mg1       1.0  0.00000  0.00000  0.00000  1.0000
  Mg  Mg2       1.0  0.50000  0.50000  0.00000  1.0000
  Y   Y1        1.0  0.67200  0.17200  0.50000  1.0000
  Y   Y2        1.0  0.17200  0.32800  0.50000  1.0000
  Y   Y3        1.0  0.82800  0.67200  0.50000  1.0000
  Y   Y4        1.0  0.32800  0.82800  0.50000  1.0000
