data_image0
_chemical_formula_structural       Au4P4Pb2
_chemical_formula_sum              "Au4 P4 Pb2"
_cell_length_a       3.29215
_cell_length_b       6.00796
_cell_length_c       11.3781
_cell_angle_alpha    90
_cell_angle_beta     90
_cell_angle_gamma    74.0986

_space_group_name_H-M_alt    "P 1"
_space_group_IT_number       1

loop_
  _space_group_symop_operation_xyz
  'x, y, z'

loop_
  _atom_site_type_symbol
  _atom_site_label
  _atom_site_symmetry_multiplicity
  _atom_site_fract_x
  _atom_site_fract_y
  _atom_site_fract_z
  _atom_site_occupancy
  Au  Au1       1.0  0.00000  0.00000  0.00000  1.0000
  Au  Au2       1.0  0.77600  0.44800  0.25000  1.0000
  Au  Au3       1.0  0.00000  0.00000  0.50000  1.0000
  Au  Au4       1.0  0.22400  0.55200  0.75000  1.0000
  P   P1        1.0  0.79900  0.40300  0.04370  1.0000
  P   P2        1.0  0.79900  0.40300  0.45600  1.0000
  P   P3        1.0  0.20100  0.59700  0.54400  1.0000
  P   P4        1.0  0.20100  0.59700  0.95600  1.0000
  Pb  Pb1       1.0  0.52300  0.95400  0.25000  1.0000
  Pb  Pb2       1.0  0.47700  0.04560  0.75000  1.0000
