data_image0
_chemical_formula_structural       Be4Ca2N4
_chemical_formula_sum              "Be4 Ca2 N4"
_cell_length_a       5.18778
_cell_length_b       5.18778
_cell_length_c       5.18778
_cell_angle_alpha    98.1007
_cell_angle_beta     115.439
_cell_angle_gamma    115.439

_space_group_name_H-M_alt    "P 1"
_space_group_IT_number       1

loop_
  _space_group_symop_operation_xyz
  'x, y, z'

loop_
  _atom_site_type_symbol
  _atom_site_label
  _atom_site_symmetry_multiplicity
  _atom_site_fract_x
  _atom_site_fract_y
  _atom_site_fract_z
  _atom_site_occupancy
  Be  Be1       1.0  0.75200  0.62600  0.12600  1.0000
  Be  Be2       1.0  0.50000  0.12600  0.37400  1.0000
  Be  Be3       1.0  0.50000  0.87400  0.62600  1.0000
  Be  Be4       1.0  0.24800  0.37400  0.87400  1.0000
  Ca  Ca1       1.0  0.00000  0.25000  0.25000  1.0000
  Ca  Ca2       1.0  0.00000  0.75000  0.75000  1.0000
  N   N1        1.0  0.50000  0.33000  0.17000  1.0000
  N   N2        1.0  0.16100  0.83000  0.33000  1.0000
  N   N3        1.0  0.83900  0.17000  0.67000  1.0000
  N   N4        1.0  0.50000  0.67000  0.83000  1.0000
