data_image0
_chemical_formula_structural       Li2Rh4Si4
_chemical_formula_sum              "Li2 Rh4 Si4"
_cell_length_a       7.03043
_cell_length_b       7.03043
_cell_length_c       2.76251
_cell_angle_alpha    90
_cell_angle_beta     90
_cell_angle_gamma    90

_space_group_name_H-M_alt    "P 1"
_space_group_IT_number       1

loop_
  _space_group_symop_operation_xyz
  'x, y, z'

loop_
  _atom_site_type_symbol
  _atom_site_label
  _atom_site_symmetry_multiplicity
  _atom_site_fract_x
  _atom_site_fract_y
  _atom_site_fract_z
  _atom_site_occupancy
  Li  Li1       1.0  0.00000  0.00000  0.00000  1.0000
  Li  Li2       1.0  0.50000  0.50000  0.00000  1.0000
  Rh  Rh1       1.0  0.35000  0.15000  0.50000  1.0000
  Rh  Rh2       1.0  0.85000  0.35000  0.50000  1.0000
  Rh  Rh3       1.0  0.15000  0.65000  0.50000  1.0000
  Rh  Rh4       1.0  0.65000  0.85000  0.50000  1.0000
  Si  Si1       1.0  0.64600  0.14600  0.00000  1.0000
  Si  Si2       1.0  0.14600  0.35400  0.00000  1.0000
  Si  Si3       1.0  0.85400  0.64600  0.00000  1.0000
  Si  Si4       1.0  0.35400  0.85400  0.00000  1.0000
