data_image0
_chemical_formula_structural       Ge4In2Nd4
_chemical_formula_sum              "Ge4 In2 Nd4"
_cell_length_a       7.56117
_cell_length_b       7.56117
_cell_length_c       4.37179
_cell_angle_alpha    90
_cell_angle_beta     90
_cell_angle_gamma    90

_space_group_name_H-M_alt    "P 1"
_space_group_IT_number       1

loop_
  _space_group_symop_operation_xyz
  'x, y, z'

loop_
  _atom_site_type_symbol
  _atom_site_label
  _atom_site_symmetry_multiplicity
  _atom_site_fract_x
  _atom_site_fract_y
  _atom_site_fract_z
  _atom_site_occupancy
  Ge  Ge1       1.0  0.61900  0.11900  0.00000  1.0000
  Ge  Ge2       1.0  0.11900  0.38100  0.00000  1.0000
  Ge  Ge3       1.0  0.88100  0.61900  0.00000  1.0000
  Ge  Ge4       1.0  0.38100  0.88100  0.00000  1.0000
  In  In1       1.0  0.00000  0.00000  0.00000  1.0000
  In  In2       1.0  0.50000  0.50000  0.00000  1.0000
  Nd  Nd1       1.0  0.32100  0.17900  0.50000  1.0000
  Nd  Nd2       1.0  0.82100  0.32100  0.50000  1.0000
  Nd  Nd3       1.0  0.17900  0.67900  0.50000  1.0000
  Nd  Nd4       1.0  0.67900  0.82100  0.50000  1.0000
