data_image0
_chemical_formula_structural       Ru2Sc4Si4
_chemical_formula_sum              "Ru2 Sc4 Si4"
_cell_length_a       4.08463
_cell_length_b       5.44001
_cell_length_c       8.65652
_cell_angle_alpha    98.7183
_cell_angle_beta     103.646
_cell_angle_gamma    67.9494

_space_group_name_H-M_alt    "P 1"
_space_group_IT_number       1

loop_
  _space_group_symop_operation_xyz
  'x, y, z'

loop_
  _atom_site_type_symbol
  _atom_site_label
  _atom_site_symmetry_multiplicity
  _atom_site_fract_x
  _atom_site_fract_y
  _atom_site_fract_z
  _atom_site_occupancy
  Ru  Ru1       1.0  0.73000  0.91000  0.37000  1.0000
  Ru  Ru2       1.0  0.27000  0.09000  0.63000  1.0000
  Sc  Sc1       1.0  0.18300  0.74100  0.10700  1.0000
  Sc  Sc2       1.0  0.99600  0.33100  0.32300  1.0000
  Sc  Sc3       1.0  0.00401  0.66900  0.67700  1.0000
  Sc  Sc4       1.0  0.81700  0.25900  0.89300  1.0000
  Si  Si1       1.0  0.48700  0.14700  0.12100  1.0000
  Si  Si2       1.0  0.36100  0.71300  0.43500  1.0000
  Si  Si3       1.0  0.63900  0.28700  0.56500  1.0000
  Si  Si4       1.0  0.51300  0.85300  0.87900  1.0000
