data_image0
_chemical_formula_structural       C2Gd2Os4P2
_chemical_formula_sum              "C2 Gd2 Os4 P2"
_cell_length_a       3.85711
_cell_length_b       5.87327
_cell_length_c       7.07013
_cell_angle_alpha    90
_cell_angle_beta     90
_cell_angle_gamma    70.8307

_space_group_name_H-M_alt    "P 1"
_space_group_IT_number       1

loop_
  _space_group_symop_operation_xyz
  'x, y, z'

loop_
  _atom_site_type_symbol
  _atom_site_label
  _atom_site_symmetry_multiplicity
  _atom_site_fract_x
  _atom_site_fract_y
  _atom_site_fract_z
  _atom_site_occupancy
  C   C1        1.0  0.50000  0.00000  0.00000  1.0000
  C   C2        1.0  0.50000  0.00000  0.50000  1.0000
  Gd  Gd1       1.0  0.95600  0.08870  0.25000  1.0000
  Gd  Gd2       1.0  0.04440  0.91100  0.75000  1.0000
  Os  Os1       1.0  0.66700  0.66700  0.05280  1.0000
  Os  Os2       1.0  0.66700  0.66700  0.44700  1.0000
  Os  Os3       1.0  0.33300  0.33300  0.55300  1.0000
  Os  Os4       1.0  0.33300  0.33300  0.94700  1.0000
  P   P1        1.0  0.23000  0.53900  0.25000  1.0000
  P   P2        1.0  0.77000  0.46100  0.75000  1.0000
