data_image0
_chemical_formula_structural       Al4I2La4
_chemical_formula_sum              "Al4 I2 La4"
_cell_length_a       4.39192
_cell_length_b       4.39185
_cell_length_c       17.6525
_cell_angle_alpha    90
_cell_angle_beta     90
_cell_angle_gamma    120.001

_space_group_name_H-M_alt    "P 1"
_space_group_IT_number       1

loop_
  _space_group_symop_operation_xyz
  'x, y, z'

loop_
  _atom_site_type_symbol
  _atom_site_label
  _atom_site_symmetry_multiplicity
  _atom_site_fract_x
  _atom_site_fract_y
  _atom_site_fract_z
  _atom_site_occupancy
  Al  Al1       1.0  0.66700  0.33300  0.00605  1.0000
  Al  Al2       1.0  0.66700  0.33300  0.49400  1.0000
  Al  Al3       1.0  0.33300  0.66700  0.50600  1.0000
  Al  Al4       1.0  0.33300  0.66700  0.99400  1.0000
  I   I1        1.0  0.33300  0.66700  0.25000  1.0000
  I   I2        1.0  0.66700  0.33300  0.75000  1.0000
  La  La1       1.0  0.00000  0.00000  0.12000  1.0000
  La  La2       1.0  0.00000  0.00000  0.38000  1.0000
  La  La3       1.0  0.00000  0.00000  0.62000  1.0000
  La  La4       1.0  0.00000  0.00000  0.88000  1.0000
