data_image0
_chemical_formula_structural       Ag2Bi2Cl4S2
_chemical_formula_sum              "Ag2 Bi2 Cl4 S2"
_cell_length_a       4.05333
_cell_length_b       7.27138
_cell_length_c       8.744
_cell_angle_alpha    90
_cell_angle_beta     90
_cell_angle_gamma    73.8163

_space_group_name_H-M_alt    "P 1"
_space_group_IT_number       1

loop_
  _space_group_symop_operation_xyz
  'x, y, z'

loop_
  _atom_site_type_symbol
  _atom_site_label
  _atom_site_symmetry_multiplicity
  _atom_site_fract_x
  _atom_site_fract_y
  _atom_site_fract_z
  _atom_site_occupancy
  Ag  Ag1       1.0  0.00000  0.00000  0.00000  1.0000
  Ag  Ag2       1.0  0.00000  0.00000  0.50000  1.0000
  Bi  Bi1       1.0  0.71000  0.58000  0.25000  1.0000
  Bi  Bi2       1.0  0.29000  0.42000  0.75000  1.0000
  Cl  Cl1       1.0  0.34200  0.31600  0.06230  1.0000
  Cl  Cl2       1.0  0.34200  0.31600  0.43800  1.0000
  Cl  Cl3       1.0  0.65800  0.68400  0.56200  1.0000
  Cl  Cl4       1.0  0.65800  0.68400  0.93800  1.0000
  S   S1        1.0  0.08190  0.83600  0.25000  1.0000
  S   S2        1.0  0.91800  0.16400  0.75000  1.0000
