data_image0
_chemical_formula_structural       Te6Tl4
_chemical_formula_sum              "Te6 Tl4"
_cell_length_a       6.60719
_cell_length_b       7.42325
_cell_length_c       8.01728
_cell_angle_alpha    104.697
_cell_angle_beta     90
_cell_angle_gamma    116.425

_space_group_name_H-M_alt    "P 1"
_space_group_IT_number       1

loop_
  _space_group_symop_operation_xyz
  'x, y, z'

loop_
  _atom_site_type_symbol
  _atom_site_label
  _atom_site_symmetry_multiplicity
  _atom_site_fract_x
  _atom_site_fract_y
  _atom_site_fract_z
  _atom_site_occupancy
  Te  Te1       1.0  0.03800  0.36200  0.07940  1.0000
  Te  Te2       1.0  0.13200  0.00000  0.25000  1.0000
  Te  Te3       1.0  0.67600  0.63800  0.42100  1.0000
  Te  Te4       1.0  0.32400  0.36200  0.57900  1.0000
  Te  Te5       1.0  0.86800  0.00000  0.75000  1.0000
  Te  Te6       1.0  0.96200  0.63800  0.92100  1.0000
  Tl  Tl1       1.0  0.54500  0.78400  0.04670  1.0000
  Tl  Tl2       1.0  0.76100  0.21600  0.45300  1.0000
  Tl  Tl3       1.0  0.23900  0.78400  0.54700  1.0000
  Tl  Tl4       1.0  0.45500  0.21600  0.95300  1.0000
