data_image0
_chemical_formula_structural       Ba2Cl2O4Sb2
_chemical_formula_sum              "Ba2 Cl2 O4 Sb2"
_cell_length_a       5.55565
_cell_length_b       5.88719
_cell_length_c       7.06111
_cell_angle_alpha    65.3626
_cell_angle_beta     90
_cell_angle_gamma    90

_space_group_name_H-M_alt    "P 1"
_space_group_IT_number       1

loop_
  _space_group_symop_operation_xyz
  'x, y, z'

loop_
  _atom_site_type_symbol
  _atom_site_label
  _atom_site_symmetry_multiplicity
  _atom_site_fract_x
  _atom_site_fract_y
  _atom_site_fract_z
  _atom_site_occupancy
  Ba  Ba1       1.0  0.25000  0.87100  0.25800  1.0000
  Ba  Ba2       1.0  0.75000  0.12900  0.74200  1.0000
  Cl  Cl1       1.0  0.75000  0.75300  0.49400  1.0000
  Cl  Cl2       1.0  0.25000  0.24700  0.50600  1.0000
  O   O1        1.0  0.00000  0.28200  0.00000  1.0000
  O   O2        1.0  0.50000  0.28200  0.00000  1.0000
  O   O3        1.0  0.00000  0.71800  0.00000  1.0000
  O   O4        1.0  0.50000  0.71800  0.00000  1.0000
  Sb  Sb1       1.0  0.75000  0.42900  0.14100  1.0000
  Sb  Sb2       1.0  0.25000  0.57100  0.85900  1.0000
