data_image0
_chemical_formula_structural       Eu4OSb2
_chemical_formula_sum              "Eu4 O1 Sb2"
_cell_length_a       4.82501
_cell_length_b       4.82501
_cell_length_c       9.05062
_cell_angle_alpha    105.459
_cell_angle_beta     105.459
_cell_angle_gamma    90

_space_group_name_H-M_alt    "P 1"
_space_group_IT_number       1

loop_
  _space_group_symop_operation_xyz
  'x, y, z'

loop_
  _atom_site_type_symbol
  _atom_site_label
  _atom_site_symmetry_multiplicity
  _atom_site_fract_x
  _atom_site_fract_y
  _atom_site_fract_z
  _atom_site_occupancy
  Eu  Eu1       1.0  0.50000  0.00000  0.00000  1.0000
  Eu  Eu2       1.0  0.00000  0.50000  0.00000  1.0000
  Eu  Eu3       1.0  0.16500  0.16500  0.33000  1.0000
  Eu  Eu4       1.0  0.83500  0.83500  0.67000  1.0000
  O   O1        1.0  0.00000  0.00000  0.00000  1.0000
  Sb  Sb1       1.0  0.63900  0.63900  0.27800  1.0000
  Sb  Sb2       1.0  0.36100  0.36100  0.72200  1.0000
