data_image0
_chemical_formula_structural       Bi2Cl4Cu2S2
_chemical_formula_sum              "Bi2 Cl4 Cu2 S2"
_cell_length_a       4.04779
_cell_length_b       6.77723
_cell_length_c       8.48314
_cell_angle_alpha    90
_cell_angle_beta     90
_cell_angle_gamma    72.6246

_space_group_name_H-M_alt    "P 1"
_space_group_IT_number       1

loop_
  _space_group_symop_operation_xyz
  'x, y, z'

loop_
  _atom_site_type_symbol
  _atom_site_label
  _atom_site_symmetry_multiplicity
  _atom_site_fract_x
  _atom_site_fract_y
  _atom_site_fract_z
  _atom_site_occupancy
  Bi  Bi1       1.0  0.70300  0.59300  0.25000  1.0000
  Bi  Bi2       1.0  0.29700  0.40700  0.75000  1.0000
  Cl  Cl1       1.0  0.35200  0.29700  0.06390  1.0000
  Cl  Cl2       1.0  0.35200  0.29700  0.43600  1.0000
  Cl  Cl3       1.0  0.64800  0.70300  0.56400  1.0000
  Cl  Cl4       1.0  0.64800  0.70300  0.93600  1.0000
  Cu  Cu1       1.0  0.00000  0.00000  0.00000  1.0000
  Cu  Cu2       1.0  0.00000  0.00000  0.50000  1.0000
  S   S1        1.0  0.06370  0.87300  0.25000  1.0000
  S   S2        1.0  0.93600  0.12700  0.75000  1.0000
