data_image0
_chemical_formula_structural       As4Ba4Cd2
_chemical_formula_sum              "As4 Ba4 Cd2"
_cell_length_a       4.63634
_cell_length_b       8.1638
_cell_length_c       9.07914
_cell_angle_alpha    90
_cell_angle_beta     75.2069
_cell_angle_gamma    90

_space_group_name_H-M_alt    "P 1"
_space_group_IT_number       1

loop_
  _space_group_symop_operation_xyz
  'x, y, z'

loop_
  _atom_site_type_symbol
  _atom_site_label
  _atom_site_symmetry_multiplicity
  _atom_site_fract_x
  _atom_site_fract_y
  _atom_site_fract_z
  _atom_site_occupancy
  As  As1       1.0  0.93900  0.56900  0.12200  1.0000
  As  As2       1.0  0.32800  0.00000  0.34400  1.0000
  As  As3       1.0  0.67200  0.50000  0.65600  1.0000
  As  As4       1.0  0.06080  0.06950  0.87800  1.0000
  Ba  Ba1       1.0  0.46200  0.26800  0.07640  1.0000
  Ba  Ba2       1.0  0.29600  0.60900  0.40900  1.0000
  Ba  Ba3       1.0  0.70400  0.10900  0.59100  1.0000
  Ba  Ba4       1.0  0.53800  0.76800  0.92400  1.0000
  Cd  Cd1       1.0  0.90500  0.91900  0.18900  1.0000
  Cd  Cd2       1.0  0.09450  0.41900  0.81100  1.0000
