data_image0
_chemical_formula_structural       Cd2Cu4Gd4
_chemical_formula_sum              "Cd2 Cu4 Gd4"
_cell_length_a       7.53468
_cell_length_b       7.53468
_cell_length_c       3.78356
_cell_angle_alpha    90
_cell_angle_beta     90
_cell_angle_gamma    90

_space_group_name_H-M_alt    "P 1"
_space_group_IT_number       1

loop_
  _space_group_symop_operation_xyz
  'x, y, z'

loop_
  _atom_site_type_symbol
  _atom_site_label
  _atom_site_symmetry_multiplicity
  _atom_site_fract_x
  _atom_site_fract_y
  _atom_site_fract_z
  _atom_site_occupancy
  Cd  Cd1       1.0  0.00000  0.00000  0.00000  1.0000
  Cd  Cd2       1.0  0.50000  0.50000  0.00000  1.0000
  Cu  Cu1       1.0  0.62000  0.12000  0.00000  1.0000
  Cu  Cu2       1.0  0.12000  0.38000  0.00000  1.0000
  Cu  Cu3       1.0  0.88000  0.62000  0.00000  1.0000
  Cu  Cu4       1.0  0.38000  0.88000  0.00000  1.0000
  Gd  Gd1       1.0  0.32500  0.17500  0.50000  1.0000
  Gd  Gd2       1.0  0.82500  0.32500  0.50000  1.0000
  Gd  Gd3       1.0  0.17500  0.67500  0.50000  1.0000
  Gd  Gd4       1.0  0.67500  0.82500  0.50000  1.0000
