data_image0
_chemical_formula_structural       LaN3O6
_chemical_formula_sum              "La1 N3 O6"
_cell_length_a       4.13061
_cell_length_b       6.14524
_cell_length_c       6.14524
_cell_angle_alpha    115.132
_cell_angle_beta     102.947
_cell_angle_gamma    102.947

_space_group_name_H-M_alt    "P 1"
_space_group_IT_number       1

loop_
  _space_group_symop_operation_xyz
  'x, y, z'

loop_
  _atom_site_type_symbol
  _atom_site_label
  _atom_site_symmetry_multiplicity
  _atom_site_fract_x
  _atom_site_fract_y
  _atom_site_fract_z
  _atom_site_occupancy
  La  La1       1.0  0.72500  0.00000  0.00000  1.0000
  N   N1        1.0  0.12700  0.53400  0.00000  1.0000
  N   N2        1.0  0.59300  0.46600  0.46600  1.0000
  N   N3        1.0  0.12700  0.00000  0.53400  1.0000
  O   O1        1.0  0.83300  0.42200  0.00000  1.0000
  O   O2        1.0  0.14500  0.74600  0.00000  1.0000
  O   O3        1.0  0.40000  0.25400  0.25400  1.0000
  O   O4        1.0  0.83300  0.00000  0.42200  1.0000
  O   O5        1.0  0.41100  0.57800  0.57800  1.0000
  O   O6        1.0  0.14500  0.00000  0.74600  1.0000
