data_image0
_chemical_formula_structural       Cd2Ce4Pt4
_chemical_formula_sum              "Cd2 Ce4 Pt4"
_cell_length_a       7.92078
_cell_length_b       7.92078
_cell_length_c       3.96524
_cell_angle_alpha    90
_cell_angle_beta     90
_cell_angle_gamma    90

_space_group_name_H-M_alt    "P 1"
_space_group_IT_number       1

loop_
  _space_group_symop_operation_xyz
  'x, y, z'

loop_
  _atom_site_type_symbol
  _atom_site_label
  _atom_site_symmetry_multiplicity
  _atom_site_fract_x
  _atom_site_fract_y
  _atom_site_fract_z
  _atom_site_occupancy
  Cd  Cd1       1.0  0.00000  0.00000  0.00000  1.0000
  Cd  Cd2       1.0  0.50000  0.50000  0.00000  1.0000
  Ce  Ce1       1.0  0.32900  0.17100  0.50000  1.0000
  Ce  Ce2       1.0  0.82900  0.32900  0.50000  1.0000
  Ce  Ce3       1.0  0.17100  0.67100  0.50000  1.0000
  Ce  Ce4       1.0  0.67100  0.82900  0.50000  1.0000
  Pt  Pt1       1.0  0.63000  0.13000  0.00000  1.0000
  Pt  Pt2       1.0  0.13000  0.37000  0.00000  1.0000
  Pt  Pt3       1.0  0.87000  0.63000  0.00000  1.0000
  Pt  Pt4       1.0  0.37000  0.87000  0.00000  1.0000
