data_image0
_chemical_formula_structural       P2Rb2S6
_chemical_formula_sum              "P2 Rb2 S6"
_cell_length_a       7.03714
_cell_length_b       7.27594
_cell_length_c       7.27594
_cell_angle_alpha    107.257
_cell_angle_beta     118.92
_cell_angle_gamma    61.0799

_space_group_name_H-M_alt    "P 1"
_space_group_IT_number       1

loop_
  _space_group_symop_operation_xyz
  'x, y, z'

loop_
  _atom_site_type_symbol
  _atom_site_label
  _atom_site_symmetry_multiplicity
  _atom_site_fract_x
  _atom_site_fract_y
  _atom_site_fract_z
  _atom_site_occupancy
  P   P1        1.0  0.84100  0.65900  0.34100  1.0000
  P   P2        1.0  0.15900  0.34100  0.65900  1.0000
  Rb  Rb1       1.0  0.50000  0.26000  0.26000  1.0000
  Rb  Rb2       1.0  0.50000  0.74000  0.74000  1.0000
  S   S1        1.0  0.49000  0.76800  0.23200  1.0000
  S   S2        1.0  0.97400  0.76800  0.23200  1.0000
  S   S3        1.0  0.00000  0.31800  0.31800  1.0000
  S   S4        1.0  0.00000  0.68200  0.68200  1.0000
  S   S5        1.0  0.02610  0.23200  0.76800  1.0000
  S   S6        1.0  0.51000  0.23200  0.76800  1.0000
