data_image0
_chemical_formula_structural       Ba4Bi4Zn2
_chemical_formula_sum              "Ba4 Bi4 Zn2"
_cell_length_a       7.18052
_cell_length_b       7.37007
_cell_length_c       8.89521
_cell_angle_alpha    114.473
_cell_angle_beta     113.804
_cell_angle_gamma    90

_space_group_name_H-M_alt    "P 1"
_space_group_IT_number       1

loop_
  _space_group_symop_operation_xyz
  'x, y, z'

loop_
  _atom_site_type_symbol
  _atom_site_label
  _atom_site_symmetry_multiplicity
  _atom_site_fract_x
  _atom_site_fract_y
  _atom_site_fract_z
  _atom_site_occupancy
  Ba  Ba1       1.0  0.13600  0.34300  0.27100  1.0000
  Ba  Ba2       1.0  0.63600  0.92900  0.27100  1.0000
  Ba  Ba3       1.0  0.36400  0.07110  0.72900  1.0000
  Ba  Ba4       1.0  0.86400  0.65700  0.72900  1.0000
  Bi  Bi1       1.0  0.61400  0.40300  0.22800  1.0000
  Bi  Bi2       1.0  0.11400  0.82500  0.22800  1.0000
  Bi  Bi3       1.0  0.88600  0.17500  0.77200  1.0000
  Bi  Bi4       1.0  0.38600  0.59700  0.77200  1.0000
  Zn  Zn1       1.0  0.25000  0.50000  0.00000  1.0000
  Zn  Zn2       1.0  0.75000  0.50000  0.00000  1.0000
