data_image0
_chemical_formula_structural       Cu3O5Sr2
_chemical_formula_sum              "Cu3 O5 Sr2"
_cell_length_a       3.39978
_cell_length_b       3.90836
_cell_length_c       9.60098
_cell_angle_alpha    101.744
_cell_angle_beta     100.198
_cell_angle_gamma    90

_space_group_name_H-M_alt    "P 1"
_space_group_IT_number       1

loop_
  _space_group_symop_operation_xyz
  'x, y, z'

loop_
  _atom_site_type_symbol
  _atom_site_label
  _atom_site_symmetry_multiplicity
  _atom_site_fract_x
  _atom_site_fract_y
  _atom_site_fract_z
  _atom_site_occupancy
  Cu  Cu1       1.0  0.00000  0.00000  0.00000  1.0000
  Cu  Cu2       1.0  0.21200  0.21200  0.42500  1.0000
  Cu  Cu3       1.0  0.78800  0.78800  0.57500  1.0000
  O   O1        1.0  0.00000  0.50000  0.00000  1.0000
  O   O2        1.0  0.10300  0.10300  0.20700  1.0000
  O   O3        1.0  0.21800  0.71800  0.43700  1.0000
  O   O4        1.0  0.78200  0.28200  0.56300  1.0000
  O   O5        1.0  0.89700  0.89700  0.79300  1.0000
  Sr  Sr1       1.0  0.60600  0.60600  0.21300  1.0000
  Sr  Sr2       1.0  0.39400  0.39400  0.78700  1.0000
