data_image0
_chemical_formula_structural       Al8Gd2
_chemical_formula_sum              "Al8 Gd2"
_cell_length_a       4.42956
_cell_length_b       6.32877
_cell_length_c       7.89883
_cell_angle_alpha    113.617
_cell_angle_beta     106.284
_cell_angle_gamma    90

_space_group_name_H-M_alt    "P 1"
_space_group_IT_number       1

loop_
  _space_group_symop_operation_xyz
  'x, y, z'

loop_
  _atom_site_type_symbol
  _atom_site_label
  _atom_site_symmetry_multiplicity
  _atom_site_fract_x
  _atom_site_fract_y
  _atom_site_fract_z
  _atom_site_occupancy
  Al  Al1       1.0  0.50000  0.00000  0.00000  1.0000
  Al  Al2       1.0  0.50000  0.50000  0.00000  1.0000
  Al  Al3       1.0  0.11200  0.36200  0.22500  1.0000
  Al  Al4       1.0  0.69800  0.23500  0.39500  1.0000
  Al  Al5       1.0  0.69800  0.66100  0.39500  1.0000
  Al  Al6       1.0  0.30200  0.33900  0.60500  1.0000
  Al  Al7       1.0  0.30200  0.76500  0.60500  1.0000
  Al  Al8       1.0  0.88800  0.63800  0.77500  1.0000
  Gd  Gd1       1.0  0.11300  0.86300  0.22600  1.0000
  Gd  Gd2       1.0  0.88700  0.13700  0.77400  1.0000
