data_image0
_chemical_formula_structural       B4La2Ru4
_chemical_formula_sum              "B4 La2 Ru4"
_cell_length_a       5.63802
_cell_length_b       5.63802
_cell_length_c       6.0463
_cell_angle_alpha    108.224
_cell_angle_beta     108.224
_cell_angle_gamma    109.222

_space_group_name_H-M_alt    "P 1"
_space_group_IT_number       1

loop_
  _space_group_symop_operation_xyz
  'x, y, z'

loop_
  _atom_site_type_symbol
  _atom_site_label
  _atom_site_symmetry_multiplicity
  _atom_site_fract_x
  _atom_site_fract_y
  _atom_site_fract_z
  _atom_site_occupancy
  B   B1        1.0  0.67900  0.32100  0.00000  1.0000
  B   B2        1.0  0.32100  0.67900  0.00000  1.0000
  B   B3        1.0  0.92900  0.07080  0.50000  1.0000
  B   B4        1.0  0.57100  0.42900  0.50000  1.0000
  La  La1       1.0  0.00000  0.00000  0.00000  1.0000
  La  La2       1.0  0.25000  0.75000  0.50000  1.0000
  Ru  Ru1       1.0  0.61300  0.11300  0.22700  1.0000
  Ru  Ru2       1.0  0.63700  0.63700  0.27300  1.0000
  Ru  Ru3       1.0  0.36300  0.36300  0.72700  1.0000
  Ru  Ru4       1.0  0.88700  0.38700  0.77300  1.0000
